
  OWA STORM WATER MANAGEMENT MODEL - VERSION v5.1.14 (OWA 2022-07-31)
  --------------------------------------------------------------

  WARNING 04: minimum elevation drop used for Conduit WS02004404WS02004405
  WARNING 03: negative offset ignored for Link YS02001904YS02001907
  
  *********************************************************
  NOTE: The summary statistics displayed in this report are
  based on results found at every computational time step,  
  not just on results from each reporting time step.
  *********************************************************
  
  ****************
  Analysis Options
  ****************
  Flow Units ............... LPS
  Process Models:
    Rainfall/Runoff ........ YES
    RDII ................... NO
    Snowmelt ............... NO
    Groundwater ............ NO
    Flow Routing ........... YES
    Ponding Allowed ........ NO
    Water Quality .......... NO
  Infiltration Method ...... HORTON
  Flow Routing Method ...... DYNWAVE
  Surcharge Method ......... EXTRAN
  Starting Date ............ 08/28/2015 08:00:00
  Ending Date .............. 08/28/2015 16:00:00
  Antecedent Dry Days ...... 8.0
  Report Time Step ......... 00:01:00
  Wet Time Step ............ 00:01:00
  Dry Time Step ............ 00:01:00
  Routing Time Step ........ 30.00 sec
  Variable Time Step ....... YES
  Maximum Trials ........... 8
  Number of Threads ........ 4
  Head Tolerance ........... 0.001500 m
  
  
  **************************        Volume         Depth
  Runoff Quantity Continuity     hectare-m            mm
  **************************     ---------       -------
  Total Precipitation ......        18.043       297.853
  Evaporation Loss .........         0.000         0.000
  Infiltration Loss ........         0.266         4.392
  Surface Runoff ...........        17.721       292.540
  Final Storage ............         0.061         1.011
  Continuity Error (%) .....        -0.030
  
  
  **************************        Volume        Volume
  Flow Routing Continuity        hectare-m      10^6 ltr
  **************************     ---------     ---------
  Dry Weather Inflow .......         0.630         6.296
  Wet Weather Inflow .......        17.721       177.208
  Groundwater Inflow .......         0.000         0.000
  RDII Inflow ..............         0.000         0.000
  External Inflow ..........         0.105         1.045
  External Outflow .........         4.361        43.615
  Flooding Loss ............        14.238       142.381
  Evaporation Loss .........         0.000         0.000
  Exfiltration Loss ........         0.000         0.000
  Initial Stored Volume ....         0.303         3.031
  Final Stored Volume ......         0.196         1.960
  Continuity Error (%) .....        -0.200
  
  
  *************************
  Highest Continuity Errors
  *************************
  Node WS02006256 (6.20%)
  Node YS02001884 (5.33%)
  Node JK-storage (-4.69%)
  Node YS02001583 (-4.63%)
  
  
  ***************************
  Time-Step Critical Elements
  ***************************
  Link YS02001793JiankangQianchi (38.50%)
  Link WS02006280WS02006229 (27.85%)
  Link WS02006238WS02006235 (8.52%)
  Link WS02004404WS02004405 (6.14%)
  Link WS02006252WS02006251 (4.67%)
  
  
  ********************************
  Highest Flow Instability Indexes
  ********************************
  Link WS02004404WS02004405 (52)
  Link WS02006229WS02006228 (50)
  Link YS02001602YS02001605 (49)
  Link YS02001605YS02001607 (46)
  Link WS02004403WS02004404 (45)
  
  
  *************************
  Routing Time Step Summary
  *************************
  Minimum Time Step           :     0.01 sec
  Average Time Step           :     2.06 sec
  Maximum Time Step           :     6.46 sec
  Percent in Steady State     :     0.00
  Average Iterations per Step :     5.27
  Percent Not Converging      :    38.37
  
  
  ***************************
  Subcatchment Runoff Summary
  ***************************
  
  ------------------------------------------------------------------------------------------------------------------------------
                            Total      Total      Total      Total     Imperv       Perv      Total       Total     Peak  Runoff
                           Precip      Runon       Evap      Infil     Runoff     Runoff     Runoff      Runoff   Runoff   Coeff
  Subcatchment                 mm         mm         mm         mm         mm         mm         mm    10^6 ltr      LPS
  ------------------------------------------------------------------------------------------------------------------------------
  sub0                     275.15       0.00       0.00       1.06     254.72      18.21     272.93        0.22   166.61   0.992
  sub1                     275.15       0.00       0.00       1.85     243.69      28.42     272.11        1.81  1265.27   0.989
  sub2                     275.15       0.00       0.00       8.46     172.47      93.36     265.83        2.48  1520.46   0.966
  sub3                     275.15       0.00       0.00       9.29     172.43      92.53     264.95        5.96  3421.33   0.963
  sub4                     275.15       0.00       0.00       2.10     243.49      28.18     271.67        5.67  3482.89   0.987
  sub5                     275.15       0.00       0.00       1.13     254.64      18.14     272.78        3.09  2164.29   0.991
  sub7                     275.15       0.00       0.00       1.43     249.21      23.34     272.55        0.92   666.79   0.991
  sub8                     275.15       0.00       0.00       1.45     249.20      23.32     272.52        1.74  1249.13   0.990
  sub9                     275.15       0.00       0.00       1.45     249.19      23.32     272.51        1.31   937.60   0.990
  sub10                    275.15       0.00       0.00       1.30     251.91      20.72     272.64        3.01  2122.13   0.991
  sub11                    275.15       0.00       0.00       1.27     251.94      20.75     272.69        3.17  2282.33   0.991
  sub12                    275.15       0.00       0.00       2.07     238.27      33.71     271.99        2.38  1752.38   0.989
  sub14                    275.15       0.00       0.00       1.46     249.19      23.31     272.50        2.59  1851.26   0.990
  sub15                    275.15       0.00       0.00       5.84     191.68      76.72     268.40        4.62  3131.98   0.975
  sub16                    275.15       0.00       0.00       6.00     183.49      84.82     268.31        2.81  1988.33   0.975
  sub17                    275.15       0.00       0.00       5.86     186.23      82.21     268.44        2.30  1624.20   0.976
  sub22                    275.15       0.00       0.00       8.90     156.09     109.43     265.53       16.77 10980.94   0.965
  sub23                    275.15       0.00       0.00       7.22     172.53      94.60     267.13       12.74  8667.85   0.971
  sub60                    316.61       0.00       0.00       1.96     277.51      36.05     313.56        4.12  2909.96   0.990
  sub61                    316.61       0.00       0.00       2.85     261.75      50.99     312.74        5.74  4048.21   0.988
  sub62                    316.61       0.00       0.00       1.30     290.08      24.03     314.12        8.61  5822.29   0.992
  sub63                    316.61       0.00       0.00       5.30     223.90      86.54     310.44        7.05  4712.83   0.981
  sub64                    316.61       0.00       0.00       2.68     267.99      44.83     312.82        7.51  4856.66   0.988
  sub65                    316.61       0.00       0.00       2.32     274.27      38.86     313.13        8.62  5446.85   0.989
  sub66                    316.61       0.00       0.00       6.60     223.77      85.24     309.01       14.41  7677.69   0.976
  sub67                    316.61       0.00       0.00       1.24     290.14      24.10     314.24        5.84  4316.51   0.993
  sub68                    316.61       0.00       0.00       2.36     271.19      41.98     313.16        8.62  5940.80   0.989
  sub69                    316.61       0.00       0.00       2.17     269.08      45.33     314.41       11.64  7239.13   0.993
  sub70                    316.61       0.00       0.00       7.28     208.84     100.38     309.22        8.93  4347.82   0.977
  sub71                    316.61       0.00       0.00       1.35     290.03      23.99     314.03        8.21  5233.99   0.992
  sub72                    316.61       0.00       0.00       1.20     293.11      20.97     314.08        4.32  2600.60   0.992
  
  
  ******************
  Node Depth Summary
  ******************
  
  ---------------------------------------------------------------------------------
                                 Average  Maximum  Maximum  Time of Max    Reported
                                   Depth    Depth      HGL   Occurrence   Max Depth
  Node                 Type       Meters   Meters   Meters  days hr:min      Meters
  ---------------------------------------------------------------------------------
  HS02004478           JUNCTION     0.60     1.68    10.91     0  01:33        1.68
  HS02004479           JUNCTION     0.68     1.80    11.01     0  01:33        1.80
  HS02004480           JUNCTION     0.65     1.79    11.03     0  01:33        1.79
  HS02004770           JUNCTION     0.59     1.42    11.25     0  01:29        1.42
  HS02004777           JUNCTION     0.62     1.48    11.28     0  01:29        1.48
  HS02004785           JUNCTION     0.52     1.43    11.33     0  01:29        1.40
  HS02004788           JUNCTION     0.50     1.42    11.32     0  01:29        1.42
  HS02004792           JUNCTION     0.61     1.60    11.12     0  01:33        1.60
  HS02004799           JUNCTION     0.73     1.76    10.97     0  01:33        1.76
  HS02004802           JUNCTION     0.71     1.87    11.00     0  01:33        1.87
  HS02004807           JUNCTION     0.72     1.92    11.09     0  01:33        1.92
  HS02004817           JUNCTION     1.04     2.44    11.29     0  02:38        2.44
  HS02004824           JUNCTION     0.62     2.01    11.41     0  02:02        2.01
  HS02004830           JUNCTION     0.61     2.03    11.50     0  02:21        2.03
  HS02004837           JUNCTION     0.57     2.04    11.62     0  02:23        2.04
  HS02004842           JUNCTION     0.85     2.22    11.49     0  01:32        2.22
  HS02004848           JUNCTION     0.55     2.07    11.67     0  02:20        2.07
  HS02004852           JUNCTION     0.57     2.08    11.59     0  02:30        2.08
  HS02004856           JUNCTION     0.62     2.07    11.50     0  02:15        2.07
  HS02004862           JUNCTION     0.58     2.00    11.38     0  02:03        2.00
  HS02004870           JUNCTION     0.58     2.10    11.39     0  02:16        2.10
  HS02004876           JUNCTION     0.65     2.26    11.29     0  02:16        2.26
  HS02004881           JUNCTION     0.56     2.15    11.18     0  02:24        2.14
  HS02004901           JUNCTION     0.60     1.42    11.24     0  01:29        1.42
  WS02001211           JUNCTION     0.68     0.84     5.68     0  02:19        0.84
  WS02001212           JUNCTION     0.43     0.60     5.67     0  02:19        0.60
  WS02001213           JUNCTION     0.67     0.90     5.66     0  02:20        0.90
  WS02003059           JUNCTION     0.73     0.97     5.66     0  02:23        0.97
  WS02003060           JUNCTION     0.47     0.72     5.65     0  02:23        0.72
  WS02003066           JUNCTION     0.29     0.47     6.03     0  02:23        0.47
  WS02003067           JUNCTION     0.64     0.91     6.23     0  02:13        0.91
  WS02003069           JUNCTION     0.53     0.81     5.40     0  02:21        0.81
  WS02003072           JUNCTION     0.58     0.84     5.21     0  02:21        0.84
  WS02003073           JUNCTION     0.35     0.54     4.60     0  02:25        0.54
  WS02004138           JUNCTION     0.13     0.14     7.39     0  00:32        0.14
  WS02004139           JUNCTION     0.62     0.77     5.68     0  02:18        0.77
  WS02004401           JUNCTION     1.09     2.14     8.14     0  01:18        2.14
  WS02004402           JUNCTION     1.09     2.05     8.01     0  02:29        2.05
  WS02004403           JUNCTION     1.07     1.96     7.89     0  02:31        1.95
  WS02004404           JUNCTION     1.11     1.96     7.81     0  02:28        1.95
  WS02004405           JUNCTION     1.09     1.90     7.75     0  02:22        1.89
  WS02004406           JUNCTION     1.05     1.80     7.63     0  01:18        1.76
  WS02004407           JUNCTION     0.46     1.08     7.40     0  02:32        1.08
  WS02004409           JUNCTION     0.78     1.50     7.27     0  02:29        1.50
  WS02004410           JUNCTION     0.76     1.39     7.11     0  02:29        1.39
  WS02004411           JUNCTION     0.73     1.28     6.96     0  02:30        1.28
  WS02004412           JUNCTION     0.71     1.15     6.79     0  02:32        1.15
  WS02004413           JUNCTION     0.81     1.26     6.73     0  01:19        1.17
  WS02006109           JUNCTION     1.48     2.64     9.26     0  01:18        2.64
  WS02006110           JUNCTION     1.36     2.76     9.34     0  01:18        2.76
  WS02006111           JUNCTION     0.81     2.68     9.39     0  01:17        2.06
  WS02006112           JUNCTION     1.40     2.68     8.56     0  01:17        2.68
  WS02006113           JUNCTION     0.90     2.65     9.54     0  01:17        2.24
  WS02006115           JUNCTION     1.07     2.44     8.58     0  01:18        2.44
  WS02006116           JUNCTION     1.12     2.41     8.45     0  01:18        2.41
  WS02006228           JUNCTION     1.63     3.03     9.68     0  01:33        3.03
  WS02006229           JUNCTION     1.69     3.25     9.94     0  01:33        3.25
  WS02006230           JUNCTION     1.49     2.65     9.39     0  01:18        2.65
  WS02006231           JUNCTION     1.15     2.21     9.33     0  01:44        2.21
  WS02006232           JUNCTION     1.22     2.18     9.22     0  01:18        2.18
  WS02006234           JUNCTION     1.08     1.96     9.12     0  01:16        1.96
  WS02006235           JUNCTION     1.07     2.00     9.16     0  01:16        2.00
  WS02006238           JUNCTION     1.09     2.14     9.28     0  03:24        2.14
  WS02006239           JUNCTION     1.01     2.03     9.24     0  02:32        2.03
  WS02006240           JUNCTION     0.94     2.06     9.35     0  01:16        1.86
  WS02006242           JUNCTION     0.95     1.55     8.82     0  01:16        1.55
  WS02006243           JUNCTION     0.83     1.48     8.90     0  01:16        1.48
  WS02006245           JUNCTION     0.79     1.56     9.04     0  01:16        1.56
  WS02006247           JUNCTION     0.78     1.47     8.97     0  01:16        1.47
  WS02006248           JUNCTION     0.72     1.10     8.69     0  01:16        1.10
  WS02006249           JUNCTION     0.73     1.09     8.69     0  01:16        1.09
  WS02006251           JUNCTION     1.12     2.21     9.88     0  02:19        2.21
  WS02006252           JUNCTION     0.78     1.50     9.74     0  00:00        1.50
  WS02006253           JUNCTION     1.40     3.42    11.06     0  02:24        3.42
  WS02006256           JUNCTION     1.32     2.35     9.28     0  00:00        2.35
  WS02006280           JUNCTION     0.71     1.80    10.07     0  01:33        1.80
  WS02006284           JUNCTION     0.94     2.03    10.43     0  01:33        2.03
  WS02006287           JUNCTION     0.69     1.84    10.80     0  01:33        1.84
  WSF200               JUNCTION     0.31     0.55     5.78     0  02:23        0.55
  YS02001580           JUNCTION     0.31     1.05     9.59     0  01:17        0.82
  YS02001583           JUNCTION     0.35     1.14     9.64     0  01:17        0.82
  YS02001586           JUNCTION     0.50     1.13     9.30     0  01:17        1.13
  YS02001590           JUNCTION     0.64     1.40     9.26     0  01:15        1.38
  YS02001593           JUNCTION     0.57     1.34     9.20     0  01:17        1.29
  YS02001596           JUNCTION     0.74     1.70     9.11     0  01:44        1.70
  YS02001600           JUNCTION     0.85     1.87     9.00     0  01:17        1.87
  YS02001601           JUNCTION     1.04     2.06     8.90     0  01:17        2.06
  YS02001602           JUNCTION     0.92     1.87     8.77     0  01:17        1.87
  YS02001605           JUNCTION     0.87     1.78     8.68     0  01:17        1.78
  YS02001607           JUNCTION     0.82     1.68     8.53     0  02:38        1.68
  YS02001610           JUNCTION     0.86     1.68     8.48     0  01:17        1.68
  YS02001613           JUNCTION     0.83     1.69     8.53     0  01:17        1.67
  YS02001616           JUNCTION     0.77     1.61     8.52     0  01:17        1.61
  YS02001619           JUNCTION     0.75     1.61     8.54     0  01:17        1.61
  YS02001622           JUNCTION     0.74     1.62     8.52     0  01:17        1.58
  YS02001625           JUNCTION     0.97     1.78     8.38     0  01:17        1.78
  YS02001629           JUNCTION     0.92     1.85     8.40     0  01:17        1.85
  YS02001633           JUNCTION     1.01     2.08     8.53     0  01:27        2.08
  YS02001641           JUNCTION     0.99     1.97     8.41     0  01:44        1.97
  YS02001644           JUNCTION     0.98     1.92     8.35     0  01:22        1.92
  YS02001647           JUNCTION     0.79     1.80     8.41     0  01:44        1.80
  YS02001649           JUNCTION     0.91     2.05     8.44     0  01:31        2.05
  YS02001652           JUNCTION     0.80     2.15     8.75     0  01:43        2.15
  YS02001655           JUNCTION     0.69     2.20     9.05     0  01:34        2.20
  YS02001658           JUNCTION     0.58     2.30     9.44     0  01:34        2.30
  YS02001661           JUNCTION     0.53     2.46     9.86     0  01:38        2.46
  YS02001664           JUNCTION     0.30     2.31    10.23     0  01:34        2.31
  YS02001745           JUNCTION     0.36     2.35     9.87     0  01:37        2.35
  YS02001748           JUNCTION     0.54     2.27     9.35     0  01:35        2.27
  YS02001751           JUNCTION     0.62     2.19     9.07     0  01:37        2.19
  YS02001754           JUNCTION     0.75     2.18     8.79     0  01:35        2.17
  YS02001757           JUNCTION     0.95     2.21     8.47     0  01:35        2.20
  YS02001759           JUNCTION     0.91     2.21     8.57     0  01:34        2.21
  YS02001762           JUNCTION     0.89     2.15     8.55     0  01:34        2.15
  YS02001765           JUNCTION     0.86     2.09     8.54     0  01:38        2.08
  YS02001767           JUNCTION     0.85     2.03     8.52     0  01:44        2.03
  YS02001770           JUNCTION     0.85     1.95     8.44     0  01:24        1.95
  YS02001774           JUNCTION     0.91     2.02     8.44     0  01:24        2.02
  YS02001779           JUNCTION     0.71     1.68     8.37     0  01:21        1.68
  YS02001783           JUNCTION     0.55     1.49     7.63     0  01:37        1.48
  YS02001784           JUNCTION     0.52     1.32     7.38     0  01:39        1.31
  YS02001786           JUNCTION     0.42     0.99     7.02     0  01:34        0.98
  YS02001788           JUNCTION     0.30     0.68     6.65     0  01:35        0.68
  YS02001790           JUNCTION     0.34     0.77     6.41     0  01:33        0.75
  YS02001791           JUNCTION     0.20     0.47     5.94     0  01:34        0.45
  YS02001793           JUNCTION     0.12     0.27     5.10     0  01:34        0.26
  YS02001882           JUNCTION     0.71     1.83     8.55     0  01:35        1.83
  YS02001884           JUNCTION     0.80     1.93     8.55     0  01:33        1.93
  YS02001887           JUNCTION     0.88     2.00     8.54     0  01:33        2.00
  YS02001890           JUNCTION     0.89     1.81     8.32     0  01:18        1.81
  YS02001895           JUNCTION     0.66     1.59     8.34     0  01:44        1.59
  YS02001898           JUNCTION     0.67     1.62     8.35     0  01:19        1.62
  YS02001901           JUNCTION     0.78     1.74     8.35     0  01:19        1.74
  YS02001904           JUNCTION     0.75     1.69     8.32     0  01:19        1.69
  YS02001907           JUNCTION     1.06     1.96     8.25     0  01:19        1.96
  YS02001910           JUNCTION     0.91     2.02     8.53     0  01:37        2.02
  YS02001915           JUNCTION     0.76     2.00     8.72     0  01:30        2.00
  YS02001918           JUNCTION     0.58     1.81     8.88     0  01:21        1.81
  YS02001920           JUNCTION     0.67     2.12     9.13     0  01:21        2.08
  YS02001923           JUNCTION     0.52     2.03     9.29     0  01:21        1.92
  YS02001926           JUNCTION     0.49     1.90     9.35     0  01:20        1.88
  YS02001929           JUNCTION     0.38     1.78     9.47     0  01:21        1.78
  YS02006553           JUNCTION     1.07     2.14     8.42     0  01:38        2.14
  YS02006556           JUNCTION     1.06     2.34     8.65     0  01:38        2.34
  YS02006558           JUNCTION     1.10     2.50     8.77     0  01:34        2.50
  YS02006561           JUNCTION     0.39     1.21     7.87     0  01:36        1.21
  YS02163301           JUNCTION     0.95     1.96     8.48     0  01:44        1.96
  YS02163601           JUNCTION     1.04     2.08     8.48     0  01:32        2.08
  YS02164001           JUNCTION     0.98     1.98     8.44     0  01:37        1.98
  YSB1154              JUNCTION     0.85     2.10    11.16     0  02:10        2.10
  YSB1171              JUNCTION     0.95     1.95    10.85     0  01:33        1.95
  YSB1174              JUNCTION     0.78     1.95    11.06     0  02:15        1.95
  YSB6556              JUNCTION     0.73     1.80    10.97     0  01:33        1.80
  CC-1                 OUTFALL      0.00     0.00     0.00     0  00:00        0.00
  CC-2                 OUTFALL      0.00     0.00     0.00     0  00:00        0.00
  JK-1                 OUTFALL      0.00     0.00     0.00     0  00:00        0.00
  JK-2                 OUTFALL      0.00     0.00     0.00     0  00:00        0.00
  WSC                  OUTFALL      0.35     0.54     1.21     0  02:25        0.54
  CC-storage           STORAGE      0.92     2.18     7.68     0  03:00        2.18
  JK-storage           STORAGE      0.05     2.99     3.79     0  00:00        0.68
  XR-storage           STORAGE      7.78     9.26     7.26     0  08:00        9.26
  
  
  *******************
  Node Inflow Summary
  *******************
  
  -------------------------------------------------------------------------------------------------
                                  Maximum  Maximum                  Lateral       Total        Flow
                                  Lateral    Total  Time of Max      Inflow      Inflow     Balance
                                   Inflow   Inflow   Occurrence      Volume      Volume       Error
  Node                 Type           LPS      LPS  days hr:min    10^6 ltr    10^6 ltr     Percent
  -------------------------------------------------------------------------------------------------
  HS02004478           JUNCTION      0.00  2303.05     0  01:58           0        16.1      -0.006
  HS02004479           JUNCTION      0.00   372.95     0  01:42           0        1.62       0.040
  HS02004480           JUNCTION      0.00  1972.41     0  01:32           0        10.9       0.020
  HS02004770           JUNCTION   8667.85  9092.96     0  02:25        12.7        13.4       0.022
  HS02004777           JUNCTION      0.03   669.75     0  01:31    0.000864         2.7       0.192
  HS02004785           JUNCTION      0.15   670.10     0  01:31     0.00432         2.7       0.019
  HS02004788           JUNCTION   3133.65  3133.65     0  02:25        4.66        6.87       0.004
  HS02004792           JUNCTION  10981.22 12070.92     0  02:25        16.8        22.5       0.001
  HS02004799           JUNCTION   1851.26  2993.36     0  02:25        2.59        11.6       0.035
  HS02004802           JUNCTION      0.00  1234.69     0  02:32           0        5.94       0.064
  HS02004807           JUNCTION   2282.33  3479.22     0  02:25        3.17        8.22       0.054
  HS02004817           JUNCTION      0.60  1196.90     0  02:35      0.0173        5.11       0.327
  HS02004824           JUNCTION   3482.94  4354.97     0  02:25        5.67        8.01       0.007
  HS02004830           JUNCTION      0.15  1042.34     0  02:25     0.00432        2.62       0.047
  HS02004837           JUNCTION   2128.48  2128.48     0  02:25        3.19        3.81       0.021
  HS02004842           JUNCTION      0.00  2349.28     0  02:25           0        3.67       0.357
  HS02004848           JUNCTION   3421.33  3421.33     0  02:25        5.96        6.78       0.000
  HS02004852           JUNCTION      0.00   881.08     0  02:25           0        4.19       0.007
  HS02004856           JUNCTION    937.60  1818.35     0  02:25        1.31         5.5       0.030
  HS02004862           JUNCTION   1520.66  2551.29     0  02:25        2.48        7.56       0.005
  HS02004870           JUNCTION   1249.13  1310.54     0  02:40        1.74        6.82       0.003
  HS02004876           JUNCTION   1265.27  2191.25     0  02:25        1.81        8.56       0.007
  HS02004881           JUNCTION    666.79  1745.07     0  02:30       0.918        9.05       0.007
  HS02004901           JUNCTION   1988.33  2254.12     0  02:25        2.81        4.16       0.042
  WS02001211           JUNCTION      7.35   306.56     0  01:24       0.212        5.44       0.610
  WS02001212           JUNCTION      0.00   304.56     0  01:22           0        5.41       0.273
  WS02001213           JUNCTION      0.00   275.44     0  01:21           0        5.41       0.345
  WS02003059           JUNCTION      0.00   318.77     0  01:21           0         5.4       0.594
  WS02003060           JUNCTION     16.53  1613.97     0  02:23       0.476        18.6       0.078
  WS02003066           JUNCTION      0.00  1399.77     0  02:23           0        12.8       0.012
  WS02003067           JUNCTION      0.00  1400.28     0  02:32           0        12.8       0.034
  WS02003069           JUNCTION      0.32  1614.17     0  02:23     0.00922        18.6       0.084
  WS02003072           JUNCTION      0.00  1614.09     0  02:24           0        18.6       0.113
  WS02003073           JUNCTION      1.82  1615.89     0  02:24      0.0524        18.6       0.115
  WS02004138           JUNCTION      0.00   380.00     0  00:00           0        5.25       0.053
  WS02004139           JUNCTION      0.32   220.08     0  01:23     0.00924        5.26       0.508
  WS02004401           JUNCTION      0.00  1400.40     0  02:32           0        12.9       0.084
  WS02004402           JUNCTION      0.00  1400.23     0  02:32           0        12.9       0.084
  WS02004403           JUNCTION      0.00  1400.05     0  02:32           0        12.9       0.082
  WS02004404           JUNCTION      0.16  1400.43     0  02:22     0.00467        12.8       0.069
  WS02004405           JUNCTION      0.04  1400.99     0  02:17      0.0011        12.8       0.099
  WS02004406           JUNCTION      0.00  1400.66     0  02:32           0        12.8       0.168
  WS02004407           JUNCTION      0.00  1400.63     0  02:32           0        12.8       0.011
  WS02004409           JUNCTION      0.00  1399.98     0  02:15           0        12.8       0.025
  WS02004410           JUNCTION      0.00  1400.16     0  02:32           0        12.8       0.039
  WS02004411           JUNCTION      0.00  1400.19     0  02:31           0        12.8       0.046
  WS02004412           JUNCTION      0.00  1399.96     0  02:30           0        12.8       0.062
  WS02004413           JUNCTION      0.00  1400.20     0  02:32           0        12.8       0.111
  WS02006109           JUNCTION      1.23  1288.70     0  02:09      0.0354        12.5       0.068
  WS02006110           JUNCTION      0.00  1185.23     0  01:17           0        11.1       0.070
  WS02006111           JUNCTION      0.00  1162.39     0  01:17           0        11.1       0.001
  WS02006112           JUNCTION   1624.20  2461.61     0  02:25         2.3        13.4       0.154
  WS02006113           JUNCTION      0.00  1185.61     0  01:17           0        11.1       0.024
  WS02006115           JUNCTION      0.00  1400.81     0  02:32           0        12.9       0.060
  WS02006116           JUNCTION      0.00  1400.56     0  02:30           0        12.9      -0.029
  WS02006228           JUNCTION      0.00  1287.80     0  02:13           0        12.5       0.019
  WS02006229           JUNCTION      0.00  2308.28     0  02:43           0        18.7       0.039
  WS02006230           JUNCTION     10.28  1025.58     0  02:32       0.296        8.83       0.108
  WS02006231           JUNCTION      0.00   481.13     0  04:17           0        5.49      -0.085
  WS02006232           JUNCTION      0.00   477.12     0  04:17           0        5.47       0.092
  WS02006234           JUNCTION      0.00   469.74     0  01:27           0        5.43      -0.065
  WS02006235           JUNCTION      0.00   487.49     0  04:13           0        5.14       0.091
  WS02006238           JUNCTION      0.00   470.42     0  01:15           0        5.05      -0.031
  WS02006239           JUNCTION      0.00   427.53     0  04:11           0           5      -0.044
  WS02006240           JUNCTION      0.00   426.41     0  04:05           0        4.97      -0.011
  WS02006242           JUNCTION      0.00   581.52     0  01:16           0        4.95      -0.010
  WS02006243           JUNCTION      0.00   710.86     0  01:16           0        4.12      -0.105
  WS02006245           JUNCTION      0.00   538.97     0  01:16           0        4.12       0.186
  WS02006247           JUNCTION      0.00   564.42     0  01:16           0        4.12      -0.023
  WS02006248           JUNCTION      0.00   607.88     0  01:16           0        4.59       0.019
  WS02006249           JUNCTION      0.00  1411.09     0  02:24           0        11.4       0.037
  WS02006251           JUNCTION      0.08  1898.04     0  02:24     0.00222        12.5      -0.011
  WS02006252           JUNCTION      0.00   820.21     0  02:21           0        6.07      -0.002
  WS02006253           JUNCTION    166.61  1898.14     0  02:24       0.221        9.28      -0.001
  WS02006256           JUNCTION      0.00   333.38     0  01:15           0        1.18       6.606
  WS02006280           JUNCTION      0.00  2302.81     0  01:58           0        16.1      -0.000
  WS02006284           JUNCTION      0.10  2302.24     0  01:58     0.00275        16.1       0.008
  WS02006287           JUNCTION      0.00  2304.37     0  02:18           0        16.1       0.015
  WSF200               JUNCTION      0.00  1400.02     0  02:13           0        12.8       0.004
  YS02001580           JUNCTION      0.00   138.18     0  01:17           0     0.00447      -0.815
  YS02001583           JUNCTION      0.00   173.33     0  01:17           0      0.0155      -4.423
  YS02001586           JUNCTION   4347.82  4347.82     0  01:40        8.93        8.95       0.017
  YS02001590           JUNCTION      0.00   318.49     0  02:38           0        2.51      -0.021
  YS02001593           JUNCTION      0.00   318.09     0  02:38           0        2.51       0.009
  YS02001596           JUNCTION      0.00   318.03     0  01:44           0        2.51      -0.008
  YS02001600           JUNCTION      0.00   317.90     0  02:59           0        2.51       0.015
  YS02001601           JUNCTION   7239.13  7556.78     0  01:38        11.6        14.1       0.006
  YS02001602           JUNCTION      0.00   570.97     0  01:17           0        3.45       0.016
  YS02001605           JUNCTION      0.00   570.88     0  01:17           0        3.05       0.028
  YS02001607           JUNCTION      0.00   570.51     0  01:17           0        3.05       0.062
  YS02001610           JUNCTION      0.00   954.68     0  02:00           0         5.2       0.050
  YS02001613           JUNCTION      0.00   618.49     0  01:51           0        3.33       0.047
  YS02001616           JUNCTION      0.00   618.59     0  01:51           0        3.34       0.011
  YS02001619           JUNCTION   7677.69  7677.69     0  01:39        14.4        15.6      -0.000
  YS02001622           JUNCTION      0.00  1053.75     0  01:54           0        7.48      -0.003
  YS02001625           JUNCTION      0.00  1505.34     0  02:02           0        9.06       0.143
  YS02001629           JUNCTION      0.00  1138.75     0  01:50           0        4.79      -0.026
  YS02001633           JUNCTION   5447.05  5447.05     0  01:38        8.63        10.6       0.032
  YS02001641           JUNCTION      0.00  1364.83     0  01:20           0        5.92       0.051
  YS02001644           JUNCTION   4856.69  6608.62     0  01:38        7.51        14.6       0.023
  YS02001647           JUNCTION      0.00  1779.15     0  01:20           0         6.5       0.007
  YS02001649           JUNCTION      0.00  2645.54     0  01:40           0        11.5       0.005
  YS02001652           JUNCTION      0.00  2429.04     0  01:37           0        6.16      -0.035
  YS02001655           JUNCTION      0.15  2731.44     0  01:45     0.00443        6.37       0.036
  YS02001658           JUNCTION      0.00  2783.52     0  01:40           0         6.4      -0.009
  YS02001661           JUNCTION      0.00  2783.57     0  01:44           0        6.39      -0.063
  YS02001664           JUNCTION   4712.83  4712.83     0  01:38        7.05        7.05       0.007
  YS02001745           JUNCTION   2909.96  2909.96     0  01:38        4.12        4.12       0.038
  YS02001748           JUNCTION      0.04  2910.24     0  01:38      0.0013        4.12      -0.063
  YS02001751           JUNCTION      0.01  2391.31     0  01:39    0.000317        4.03       0.034
  YS02001754           JUNCTION      0.26  2391.76     0  01:39     0.00749        4.04      -0.047
  YS02001757           JUNCTION      0.00  3982.32     0  01:39           0        20.3       0.020
  YS02001759           JUNCTION   4048.25  4048.25     0  01:38        5.74        8.36      -0.003
  YS02001762           JUNCTION      0.00   756.96     0  01:25           0        3.27       0.005
  YS02001765           JUNCTION      0.00   757.02     0  01:25           0        3.26       0.007
  YS02001767           JUNCTION      0.54   757.68     0  01:25      0.0154        3.27       0.009
  YS02001770           JUNCTION   5822.44  6540.09     0  01:38        8.61         9.3      -0.002
  YS02001774           JUNCTION      0.00   851.85     0  01:57           0        2.31       0.050
  YS02001779           JUNCTION      0.01   851.56     0  01:51    0.000144        2.27      -0.008
  YS02001783           JUNCTION      0.00  1321.58     0  01:44           0        8.38       0.003
  YS02001784           JUNCTION      1.06  1322.69     0  01:40      0.0305        8.41       0.006
  YS02001786           JUNCTION      0.06  1322.60     0  01:38     0.00162        8.41       0.008
  YS02001788           JUNCTION      0.07  1322.64     0  01:38     0.00204        8.41       0.003
  YS02001790           JUNCTION      0.15  1334.53     0  01:35     0.00446        8.42      -0.012
  YS02001791           JUNCTION      0.00  1376.95     0  01:34           0        8.42      -0.004
  YS02001793           JUNCTION      0.00  1380.06     0  01:34           0        8.42      -0.028
  YS02001882           JUNCTION      0.00    64.23     0  01:18           0      0.0135       4.998
  YS02001884           JUNCTION      0.00    99.85     0  01:14           0      0.0495       5.635
  YS02001887           JUNCTION   4316.96  4316.96     0  01:37        5.86        5.89       0.073
  YS02001890           JUNCTION      0.00  2052.03     0  01:44           0        5.07       0.102
  YS02001895           JUNCTION      0.00   517.91     0  01:44           0        2.83       0.086
  YS02001898           JUNCTION      0.00   517.72     0  01:59           0        2.83      -0.010
  YS02001901           JUNCTION      0.00   517.78     0  01:57           0        2.84       0.123
  YS02001904           JUNCTION      0.00   517.68     0  01:57           0        2.85       0.097
  YS02001907           JUNCTION      0.00  4671.43     0  01:44           0        13.7       0.132
  YS02001910           JUNCTION      0.00  1992.95     0  01:56           0        8.35       0.088
  YS02001915           JUNCTION   5234.01  6455.66     0  01:38        8.21        11.9       0.012
  YS02001918           JUNCTION      0.00  1681.63     0  01:42           0        4.11       0.008
  YS02001920           JUNCTION      2.87  1681.82     0  01:42      0.0827         4.1       0.027
  YS02001923           JUNCTION      0.04  1679.05     0  01:42     0.00109           4      -0.016
  YS02001926           JUNCTION      0.05  1678.67     0  01:38      0.0015        3.98      -0.001
  YS02001929           JUNCTION   2600.60  2600.60     0  01:39        4.32        4.32      -0.008
  YS02006553           JUNCTION      0.00  2160.41     0  01:36           0        5.55       0.216
  YS02006556           JUNCTION      0.00  2160.88     0  01:44           0        5.56       0.146
  YS02006558           JUNCTION   5941.68  5941.68     0  01:38        8.64        11.7       0.029
  YS02006561           JUNCTION      0.00  1321.40     0  01:35           0        8.38       0.000
  YS02163301           JUNCTION      0.00  1138.64     0  01:40           0        4.79       0.036
  YS02163601           JUNCTION      0.11  1364.99     0  01:20     0.00317        5.91       0.088
  YS02164001           JUNCTION      0.00  1364.66     0  01:20           0        5.91       0.040
  YSB1154              JUNCTION   2164.29  2164.29     0  02:25        3.09        3.09       0.046
  YSB1171              JUNCTION      0.00  1629.76     0  02:18           0        4.99       0.128
  YSB1174              JUNCTION   1752.38  1752.38     0  02:25        2.38        2.38       0.052
  YSB6556              JUNCTION      0.00   725.69     0  02:27           0        2.38       0.053
  CC-1                 OUTFALL       0.00   683.00     0  00:00           0        8.63       0.000
  CC-2                 OUTFALL       0.00   683.00     0  00:00           0        8.63       0.000
  JK-1                 OUTFALL       0.00  1000.00     0  00:00           0         3.9       0.000
  JK-2                 OUTFALL       0.00  1000.00     0  00:00           0         3.9       0.000
  WSC                  OUTFALL       0.00  1615.83     0  02:25           0        18.6       0.000
  CC-storage           STORAGE       0.00  3784.54     0  01:35           0        22.5      -0.239
  JK-storage           STORAGE       0.00  1465.02     0  01:34           0        8.57      -4.476
  XR-storage           STORAGE     200.00   200.00     0  00:00        5.76        6.36       0.001
  
  
  **********************
  Node Surcharge Summary
  **********************
  
  Surcharging occurs when water rises above the top of the highest conduit.
  ---------------------------------------------------------------------
                                               Max. Height   Min. Depth
                                   Hours       Above Crown    Below Rim
  Node                 Type      Surcharged         Meters       Meters
  ---------------------------------------------------------------------
  HS02004478           JUNCTION        1.56          0.763        0.177
  HS02004479           JUNCTION        1.70          1.003        0.047
  HS02004480           JUNCTION        1.73          1.079        0.021
  HS02004770           JUNCTION        1.62          0.720        0.000
  HS02004777           JUNCTION        1.63          0.780        0.000
  HS02004785           JUNCTION        1.57          0.730        0.060
  HS02004788           JUNCTION        1.56          0.720        0.000
  HS02004792           JUNCTION        1.70          0.900        0.000
  HS02004799           JUNCTION        1.84          1.060        0.000
  HS02004802           JUNCTION        1.75          1.163        0.047
  HS02004807           JUNCTION        1.72          1.220        0.000
  HS02004817           JUNCTION        2.08          1.740        0.000
  HS02004824           JUNCTION        1.58          1.310        0.000
  HS02004830           JUNCTION        1.55          1.330        0.000
  HS02004837           JUNCTION        1.48          1.340        0.000
  HS02004842           JUNCTION        1.65          1.520        0.000
  HS02004848           JUNCTION        1.48          1.370        0.000
  HS02004852           JUNCTION        1.50          1.381        0.039
  HS02004856           JUNCTION        1.50          1.300        0.000
  HS02004862           JUNCTION        1.53          1.300        0.000
  HS02004870           JUNCTION        1.54          1.400        0.000
  HS02004876           JUNCTION        1.61          1.560        0.000
  HS02004881           JUNCTION        1.59          1.446        0.004
  HS02004901           JUNCTION        1.63          0.720        0.000
  WS02004401           JUNCTION        2.26          1.144        0.516
  WS02004402           JUNCTION        2.29          1.049        0.691
  WS02004403           JUNCTION        2.30          0.960        1.070
  WS02004404           JUNCTION        2.49          0.957        1.823
  WS02004405           JUNCTION        2.44          0.901        1.899
  WS02004406           JUNCTION        2.40          0.796        1.654
  WS02004407           JUNCTION        0.47          0.083        2.257
  WS02004409           JUNCTION        1.89          0.501        1.859
  WS02004410           JUNCTION        1.88          0.390        2.150
  WS02004411           JUNCTION        1.87          0.283        2.247
  WS02004412           JUNCTION        1.82          0.155        2.155
  WS02004413           JUNCTION        2.03          0.258        1.942
  WS02006109           JUNCTION        3.33          1.820        0.000
  WS02006110           JUNCTION        2.82          1.850        0.000
  WS02006111           JUNCTION        1.99          1.870        0.000
  WS02006112           JUNCTION        3.03          1.680        0.000
  WS02006113           JUNCTION        2.01          1.845        0.085
  WS02006115           JUNCTION        2.16          1.428        0.822
  WS02006116           JUNCTION        2.18          1.353        0.937
  WS02006228           JUNCTION        3.31          2.200        0.000
  WS02006229           JUNCTION        1.91          1.070        0.000
  WS02006230           JUNCTION        2.54          1.570        0.000
  WS02006231           JUNCTION        2.83          1.501        0.029
  WS02006232           JUNCTION        3.36          1.480        0.000
  WS02006234           JUNCTION        3.15          1.240        0.000
  WS02006235           JUNCTION        3.24          1.290        0.000
  WS02006238           JUNCTION        3.29          1.419        0.011
  WS02006239           JUNCTION        3.24          1.290        0.000
  WS02006240           JUNCTION        3.25          1.352        0.038
  WS02006242           JUNCTION        3.37          0.820        0.000
  WS02006243           JUNCTION        3.26          0.770        0.000
  WS02006245           JUNCTION        3.26          0.850        0.000
  WS02006247           JUNCTION        3.29          0.760        0.000
  WS02006248           JUNCTION        3.24          0.380        0.000
  WS02006249           JUNCTION        3.28          0.390        0.000
  WS02006251           JUNCTION        3.03          1.180        0.000
  WS02006252           JUNCTION        3.51          1.100        0.000
  WS02006253           JUNCTION        3.11          2.376        0.104
  WS02006256           JUNCTION        6.60          2.050        0.000
  WS02006280           JUNCTION        1.85          0.752        0.028
  WS02006284           JUNCTION        1.77          0.755        0.045
  WS02006287           JUNCTION        1.66          0.841        0.049
  YS02001580           JUNCTION        1.81          0.450        0.000
  YS02001583           JUNCTION        1.82          0.500        0.000
  YS02001586           JUNCTION        1.91          0.510        0.000
  YS02001590           JUNCTION        1.97          0.750        0.000
  YS02001593           JUNCTION        1.97          0.719        0.121
  YS02001596           JUNCTION        2.05          0.965        0.105
  YS02001600           JUNCTION        2.14          1.190        0.000
  YS02001601           JUNCTION        2.35          1.440        0.000
  YS02001602           JUNCTION        2.29          1.270        0.000
  YS02001605           JUNCTION        2.27          1.180        0.000
  YS02001607           JUNCTION        1.98          0.680        0.000
  YS02001610           JUNCTION        2.00          0.680        0.000
  YS02001613           JUNCTION        1.98          0.687        0.013
  YS02001616           JUNCTION        1.95          0.610        0.000
  YS02001619           JUNCTION        1.94          0.610        0.000
  YS02001622           JUNCTION        1.94          0.620        0.000
  YS02001625           JUNCTION        2.09          0.780        0.000
  YS02001629           JUNCTION        1.92          0.470        0.000
  YS02001633           JUNCTION        2.14          1.060        0.000
  YS02001641           JUNCTION        2.14          0.969        0.131
  YS02001644           JUNCTION        2.12          0.920        0.000
  YS02001647           JUNCTION        1.96          0.799        0.101
  YS02001649           JUNCTION        2.09          1.050        0.000
  YS02001652           JUNCTION        1.92          1.123        0.007
  YS02001655           JUNCTION        1.79          1.200        0.000
  YS02001658           JUNCTION        1.63          1.300        0.000
  YS02001661           JUNCTION        0.66          1.386        0.004
  YS02001664           JUNCTION        0.39          1.310        0.000
  YS02001745           JUNCTION        0.35          1.350        0.000
  YS02001748           JUNCTION        1.52          1.190        0.000
  YS02001751           JUNCTION        1.74          1.192        0.008
  YS02001754           JUNCTION        1.87          1.130        0.020
  YS02001757           JUNCTION        2.16          1.210        0.000
  YS02001759           JUNCTION        2.08          1.210        0.000
  YS02001762           JUNCTION        2.05          1.150        0.000
  YS02001765           JUNCTION        2.02          1.088        0.012
  YS02001767           JUNCTION        1.99          1.030        0.000
  YS02001770           JUNCTION        1.97          0.920        0.000
  YS02001774           JUNCTION        2.04          1.022        0.028
  YS02001779           JUNCTION        1.86          0.680        0.000
  YS02001783           JUNCTION        1.77          0.691        0.909
  YS02001784           JUNCTION        1.75          0.517        0.973
  YS02001786           JUNCTION        1.66          0.187        1.243
  YS02001882           JUNCTION        1.73          0.830        0.000
  YS02001884           JUNCTION        1.74          0.870        0.000
  YS02001887           JUNCTION        1.77          0.950        0.000
  YS02001890           JUNCTION        1.77          0.760        0.000
  YS02001895           JUNCTION        1.72          0.590        0.160
  YS02001898           JUNCTION        1.71          0.589        0.151
  YS02001901           JUNCTION        1.75          0.743        0.127
  YS02001904           JUNCTION        1.75          0.690        0.160
  YS02001907           JUNCTION        1.89          0.950        0.000
  YS02001910           JUNCTION        1.79          1.023        0.077
  YS02001915           JUNCTION        1.73          1.000        0.000
  YS02001918           JUNCTION        1.63          0.810        0.000
  YS02001920           JUNCTION        1.66          1.117        0.023
  YS02001923           JUNCTION        0.79          0.820        0.000
  YS02001926           JUNCTION        0.86          0.900        0.000
  YS02001929           JUNCTION        0.60          0.780        0.000
  YS02006553           JUNCTION        1.91          1.138        0.052
  YS02006556           JUNCTION        1.84          1.299        0.051
  YS02006558           JUNCTION        1.84          1.400        0.000
  YS02006561           JUNCTION        1.57          0.408        0.742
  YS02163301           JUNCTION        2.12          0.963        0.067
  YS02163601           JUNCTION        2.18          1.080        0.000
  YS02164001           JUNCTION        2.13          0.978        0.122
  YSB1154              JUNCTION        1.92          1.400        0.000
  YSB1171              JUNCTION        1.92          1.100        0.000
  YSB1174              JUNCTION        1.88          1.250        0.000
  YSB6556              JUNCTION        1.82          1.100        0.000
  
  
  *********************
  Node Flooding Summary
  *********************
  
  Flooding refers to all water that overflows a node, whether it ponds or not.
  --------------------------------------------------------------------------
                                                             Total   Maximum
                                 Maximum   Time of Max       Flood    Ponded
                        Hours       Rate    Occurrence      Volume     Depth
  Node                 Flooded       LPS   days hr:min    10^6 ltr    Meters
  --------------------------------------------------------------------------
  HS02004770              1.41   8826.77      0  02:25       9.860     0.000
  HS02004777              0.01      9.23      0  01:29       0.000     0.000
  HS02004788              0.24   1617.83      0  02:25       0.612     0.000
  HS02004792              1.44  10927.83      0  02:25      13.566     0.000
  HS02004799              0.96   1687.81      0  02:25       1.539     0.000
  HS02004807              0.78   2246.88      0  02:25       2.235     0.000
  HS02004817              0.01      0.31      0  02:38       0.000     0.000
  HS02004824              0.68   3158.66      0  02:25       2.648     0.000
  HS02004830              0.07    170.15      0  02:25       0.023     0.000
  HS02004837              0.01      7.67      0  02:25       0.000     0.000
  HS02004842              0.67   2349.13      0  02:25       2.534     0.000
  HS02004848              0.19   1270.29      0  02:25       0.432     0.000
  HS02004856              0.30    815.36      0  02:25       0.435     0.000
  HS02004862              0.62   2550.91      0  02:25       2.480     0.000
  HS02004870              0.12    296.10      0  02:24       0.060     0.000
  HS02004876              0.24   1126.85      0  02:25       0.431     0.000
  HS02004901              1.52   2254.02      0  02:25       3.971     0.000
  WS02006109              1.47    450.93      0  02:28       1.420     0.000
  WS02006110              0.01     22.81      0  01:18       0.000     0.000
  WS02006111              0.01    369.63      0  01:17       0.000     0.000
  WS02006112              0.34   1062.19      0  02:25       0.512     0.000
  WS02006228              0.01      5.93      0  01:33       0.000     0.000
  WS02006229              0.01      7.24      0  01:33       0.000     0.000
  WS02006230              1.78    572.74      0  01:59       3.094     0.000
  WS02006232              0.54      6.97      0  01:27       0.001     0.000
  WS02006234              1.84    102.81      0  01:27       0.400     0.000
  WS02006235              0.01     42.27      0  01:27       0.000     0.000
  WS02006239              0.01      1.27      0  03:24       0.000     0.000
  WS02006242              1.93    533.75      0  01:16       0.835     0.000
  WS02006243              0.01    523.21      0  01:16       0.008     0.000
  WS02006245              0.01    182.47      0  01:16       0.001     0.000
  WS02006247              0.01     72.73      0  01:16       0.000     0.000
  WS02006248              2.05    370.11      0  01:19       2.371     0.000
  WS02006249              2.76   1350.24      0  02:28       8.757     0.000
  WS02006251              0.15     66.64      0  02:24       0.018     0.000
  WS02006252              1.54    820.21      0  02:21       2.864     0.000
  WS02006256              1.11    320.53      0  01:15       0.962     0.000
  YS02001580              0.01    110.26      0  01:17       0.000     0.000
  YS02001583              0.01     28.37      0  01:17       0.000     0.000
  YS02001586              1.73   4029.90      0  01:40       6.423     0.000
  YS02001590              0.01     57.00      0  01:15       0.000     0.000
  YS02001600              0.01      1.13      0  01:17       0.000     0.000
  YS02001601              1.85   7158.88      0  01:38      10.696     0.000
  YS02001602              1.82     62.01      0  02:22       0.396     0.000
  YS02001605              0.01      5.14      0  01:17       0.000     0.000
  YS02001607              0.01      0.15      0  02:38       0.000     0.000
  YS02001610              1.75    954.38      0  01:51       4.024     0.000
  YS02001616              0.31     10.19      0  01:17       0.001     0.000
  YS02001619              0.74   6006.96      0  01:39       5.951     0.000
  YS02001622              0.01    157.20      0  01:17       0.000     0.000
  YS02001625              1.76   1505.19      0  02:02       7.032     0.000
  YS02001629              0.78    686.75      0  01:36       1.203     0.000
  YS02001633              0.35   3403.92      0  01:38       1.951     0.000
  YS02001644              1.33   6608.16      0  01:38       9.279     0.000
  YS02001649              0.30   1798.68      0  01:40       1.222     0.000
  YS02001655              0.22    303.11      0  01:44       0.213     0.000
  YS02001658              0.18     52.03      0  01:40       0.033     0.000
  YS02001664              0.18   1929.60      0  01:38       0.651     0.000
  YS02001745              0.01      3.56      0  01:37       0.000     0.000
  YS02001748              0.08    520.40      0  01:38       0.090     0.000
  YS02001757              0.01      0.85      0  01:35       0.000     0.000
  YS02001759              0.17   1758.72      0  01:37       0.563     0.000
  YS02001762              0.09      1.36      0  01:34       0.000     0.000
  YS02001767              0.01      0.29      0  01:44       0.000     0.000
  YS02001770              0.53   5688.60      0  01:38       4.400     0.000
  YS02001779              1.10    851.37      0  01:51       2.252     0.000
  YS02001882              0.01      0.35      0  01:39       0.000     0.000
  YS02001884              0.02      0.52      0  01:33       0.000     0.000
  YS02001887              0.20   2264.15      0  01:37       0.779     0.000
  YS02001890              0.89   1536.97      0  01:44       2.232     0.000
  YS02001907              1.51   4670.96      0  01:44      10.589     0.000
  YS02001915              0.52   4463.06      0  01:38       3.538     0.000
  YS02001918              0.29    459.89      0  01:46       0.376     0.000
  YS02001923              0.01     28.04      0  01:21       0.000     0.000
  YS02001926              0.01    238.78      0  01:20       0.000     0.000
  YS02001929              0.19    922.36      0  01:39       0.353     0.000
  YS02006558              0.17   2461.51      0  01:38       0.797     0.000
  YS02163601              0.01      0.21      0  01:44       0.000     0.000
  YSB1154                 0.34   1438.42      0  02:25       0.712     0.000
  YSB1171                 1.18   1629.40      0  02:18       4.084     0.000
  YSB1174                 0.24   1001.69      0  02:25       0.375     0.000
  YSB6556                 0.40     85.86      0  02:30       0.112     0.000
  
  
  **********************
  Storage Volume Summary
  **********************
  
  --------------------------------------------------------------------------------------------------
                         Average     Avg  Evap Exfil       Maximum     Max    Time of Max    Maximum
                          Volume    Pcnt  Pcnt  Pcnt        Volume    Pcnt     Occurrence    Outflow
  Storage Unit           1000 m3    Full  Loss  Loss       1000 m3    Full    days hr:min        LPS
  --------------------------------------------------------------------------------------------------
  CC-storage               2.557      40     0     0         6.081      95       0  03:00    1783.53
  JK-storage               0.003       1     0     0         0.150      52       0  00:00    2300.00
  XR-storage               0.933      65     0     0         1.111      77       0  08:00     380.00
  
  
  ***********************
  Outfall Loading Summary
  ***********************
  
  -----------------------------------------------------------
                         Flow       Avg       Max       Total
                         Freq      Flow      Flow      Volume
  Outfall Node           Pcnt       LPS       LPS    10^6 ltr
  -----------------------------------------------------------
  CC-1                  66.57    683.00    683.00       8.625
  CC-2                  66.57    683.00    683.00       8.625
  JK-1                  22.82    997.10   1000.00       3.897
  JK-2                  22.82    997.10   1000.00       3.897
  WSC                   99.96    867.37   1615.83      18.570
  -----------------------------------------------------------
  System                55.75   4227.58   1615.83      43.615
  
  
  ********************
  Link Flow Summary
  ********************
  
  -----------------------------------------------------------------------------
                                 Maximum  Time of Max   Maximum    Max/    Max/
                                  |Flow|   Occurrence   |Veloc|    Full    Full
  Link                 Type          LPS  days hr:min     m/sec    Flow   Depth
  -----------------------------------------------------------------------------
  1                    CONDUIT   1615.83     0  02:25      3.76    0.56    0.54
  HS02004478WS02006287 CONDUIT   2304.37     0  02:18      2.66    0.65    1.00
  HS02004479HS02004480 CONDUIT    373.11     0  01:42      0.55    0.36    1.00
  HS02004480HS02004478 CONDUIT   1971.16     0  01:32      2.82    8.30    1.00
  HS02004770HS02004777 CONDUIT    669.72     0  01:31      0.96    1.22    1.00
  HS02004777HS02004785 CONDUIT    669.95     0  01:31      1.00    0.82    1.00
  HS02004785HS02004788 CONDUIT    669.68     0  01:31      1.35    5.05    1.00
  HS02004788HS02004792 CONDUIT   1089.71     0  02:29      1.56    0.72    1.00
  HS02004792HS02004799 CONDUIT   1543.56     0  01:32      2.21    0.94    1.00
  HS02004799HS02004480 CONDUIT   1680.05     0  01:32      2.40    2.12    1.00
  HS02004802HS02004478 CONDUIT   1234.91     0  02:32      1.76    1.09    1.00
  HS02004807HS02004802 CONDUIT   1234.69     0  02:32      1.76    2.36    1.00
  HS02004817HS02004807 CONDUIT   1196.91     0  02:29      1.71    0.71    1.00
  HS02004817HS02004824 CONDUIT   1196.30     0  02:35      1.71    0.54    1.00
  HS02004824HS02004830 CONDUIT    872.22     0  02:26      1.25    1.14    1.00
  HS02004830HS02004837 CONDUIT   1042.19     0  02:25      1.49    1.04    1.00
  HS02004837HS02004842 CONDUIT   1079.44     0  02:25      1.54    0.64    1.00
  HS02004842HS02004848 CONDUIT   1269.84     0  02:31      1.81    0.74    1.00
  HS02004848HS02004852 CONDUIT    881.08     0  02:25      1.44    0.99    1.00
  HS02004852HS02004856 CONDUIT    881.07     0  02:30      1.34    1.01    1.00
  HS02004856HS02004862 CONDUIT   1002.96     0  02:33      1.50    1.00    1.00
  HS02004862HS02004870 CONDUIT   1146.65     0  02:42      1.64    1.24    1.00
  HS02004870HS02004876 CONDUIT   1310.70     0  02:40      1.87    0.87    1.00
  HS02004876HS02004881 CONDUIT   1525.11     0  02:40      2.18   16.22    1.00
  HS02004881HS02006253 CONDUIT   1745.25     0  02:30      2.81    0.34    1.00
  HS02004901HS02004770 CONDUIT    265.79     0  02:36      0.38    1.00    1.00
  WS02001211WS02001212 CONDUIT    259.67     0  01:27      0.54    0.20    0.72
  WS02001212WS02001213 CONDUIT    271.53     0  01:27      1.04    0.42    0.59
  WS02001213WS02003059 CONDUIT    241.14     0  03:16      0.47    0.40    0.92
  WS02003059WS02003060 CONDUIT    250.94     0  03:15      0.65    0.16    0.84
  WS02003060WS02003069 CONDUIT   1613.85     0  02:23      2.12    0.63    0.64
  WS02003066WSF200     CONDUIT   1400.02     0  02:13      3.50    0.24    0.40
  WS02003067WS02003066 CONDUIT   1399.77     0  02:23      2.08    0.45    0.57
  WS02003069WS02003072 CONDUIT   1614.09     0  02:24      1.94    0.78    0.69
  WS02003072WS02003073 CONDUIT   1614.07     0  02:24      2.11    3.49    0.64
  WS02004138WS02004139 CONDUIT    190.00     0  00:32      2.16    0.04    0.43
  WS02004139WS02001211 CONDUIT    299.21     0  01:24      0.54    0.38    0.63
  WS02004401WS02004402 CONDUIT   1400.23     0  02:32      1.78    1.68    1.00
  WS02004402WS02004403 CONDUIT   1400.05     0  02:32      1.78    2.01    1.00
  WS02004403WS02004404 CONDUIT   1400.27     0  02:22      1.78    1.01    1.00
  WS02004404WS02004405 CONDUIT   1400.95     0  02:17      1.78   13.73    1.00
  WS02004405WS02004406 CONDUIT   1400.66     0  02:32      1.78    2.76    1.00
  WS02004406WS02004407 CONDUIT   1400.63     0  02:32      1.90    0.63    1.00
  WS02004407WS02004409 CONDUIT   1399.98     0  02:15      2.15    0.50    1.00
  WS02004409WS02004410 CONDUIT   1400.16     0  02:32      1.78    1.81    1.00
  WS02004410WS02004411 CONDUIT   1400.19     0  02:31      1.78    1.91    1.00
  WS02004411WS02004412 CONDUIT   1399.96     0  02:30      1.78    1.99    1.00
  WS02004412WS02004413 CONDUIT   1400.20     0  02:32      1.78    0.94    1.00
  WS02004413WS02003067 CONDUIT   1400.28     0  02:32      2.13    0.60    0.78
  WS02006109WS02006110 CONDUIT   1185.23     0  01:17      2.36    2.28    1.00
  WS02006110WS02006113 CONDUIT   1185.61     0  01:17      2.36    1.08    1.00
  WS02006111WS02006112 CONDUIT   1128.21     0  03:01      2.24    0.54    1.00
  WS02006112WS02006115 CONDUIT   1400.81     0  02:32      1.78    0.83    1.00
  WS02006113WS02006111 CONDUIT   1162.39     0  01:17      2.73    1.39    1.00
  WS02006115WS02006116 CONDUIT   1400.56     0  02:30      1.78    1.80    1.00
  WS02006116WS02004401 CONDUIT   1400.40     0  02:32      1.78    1.93    1.00
  WS02006228WS02006109 CONDUIT   1287.47     0  02:09      2.56    5.63    1.00
  WS02006229WS02006228 CONDUIT   1287.80     0  02:13      2.56    4.27    1.00
  WS02006230WS02006229 CONDUIT   1015.30     0  02:32      2.64   22.59    1.00
  WS02006231WS02006230 CONDUIT    478.10     0  01:27      1.38    7.25    1.00
  WS02006232WS02006231 CONDUIT    481.13     0  04:17      1.25    1.01    1.00
  WS02006234WS02006232 CONDUIT    477.12     0  04:17      1.39    0.97    1.00
  WS02006235WS02006234 CONDUIT    468.14     0  04:13      1.22    4.94    1.00
  WS02006238WS02006235 CONDUIT    470.42     0  01:15      1.45    1.05    1.00
  WS02006239WS02006238 CONDUIT    427.34     0  04:11      1.11    1.37    1.00
  WS02006240WS02006239 CONDUIT    427.53     0  04:11      1.25    1.35    1.00
  WS02006242WS02006240 CONDUIT    426.41     0  04:05      1.15    1.69    1.00
  WS02006243WS02006242 CONDUIT    426.31     0  04:10      1.32    0.91    1.00
  WS02006245WS02006243 CONDUIT    513.77     0  01:16      1.51    1.52    1.00
  WS02006247WS02006245 CONDUIT    538.97     0  01:16      1.45    4.27    1.00
  WS02006248WS02006247 CONDUIT    564.42     0  01:16      1.49    1.23    1.00
  WS02006249WS02006248 CONDUIT    607.88     0  01:16      1.63    3.33    1.00
  WS02006251WS02006249 CONDUIT   1411.09     0  02:24      3.67    4.07    1.00
  WS02006252WS02006251 CONDUIT    420.21     0  02:22      4.83    1.54    1.00
  WS02006253WS02006251 CONDUIT   1897.96     0  02:24      4.93    5.69    1.00
  WS02006256WS02006235 CONDUIT    288.93     0  00:00      4.23    3.06    1.00
  WS02006280WS02006229 CONDUIT   2308.28     0  02:43      4.88    0.49    1.00
  WS02006284WS02006280 CONDUIT   2302.81     0  01:58      3.08    0.96    1.00
  WS02006287WS02006284 CONDUIT   2302.15     0  01:58      2.93    1.07    1.00
  WSF200WS02003060     CONDUIT   1400.60     0  02:14      2.83    0.31    0.53
  YS02001580YS02001583 CONDUIT    138.18     0  01:17      0.71    0.54    1.00
  YS02001583YS02001586 CONDUIT    155.49     0  01:17      0.67    0.24    1.00
  YS02001586YS02001590 CONDUIT    318.49     0  02:38      1.27    0.56    1.00
  YS02001590YS02001593 CONDUIT    318.09     0  02:38      1.13    2.00    1.00
  YS02001593YS02001596 CONDUIT    318.03     0  01:44      1.69    0.50    1.00
  YS02001596YS02001600 CONDUIT    317.90     0  02:59      1.26    0.62    1.00
  YS02001600YS02001601 CONDUIT    317.95     0  02:38      1.12    0.55    1.00
  YS02001601YS02001602 CONDUIT    570.97     0  01:17      2.02    2.06    1.00
  YS02001602YS02001605 CONDUIT    570.88     0  01:17      2.02   12.08    1.00
  YS02001605YS02001607 CONDUIT    570.51     0  01:17      2.02    3.13    1.00
  YS02001607YS02001610 CONDUIT    553.23     0  01:17      0.73    0.53    1.00
  YS02001610YS02001613 CONDUIT    618.76     0  01:51      0.79    0.71    1.00
  YS02001613YS02001616 CONDUIT    618.49     0  01:51      0.79    0.53    1.00
  YS02001616YS02001619 CONDUIT    618.59     0  01:51      0.79    1.07    1.00
  YS02001619YS02001622 CONDUIT   1053.75     0  01:54      1.64    1.55    1.00
  YS02001622YS02001625 CONDUIT   1053.56     0  02:02      1.34    0.56    1.00
  YS02001625YS02001629 CONDUIT    935.47     0  01:17      1.19    0.44    1.00
  YS02001629YS02163301 CONDUIT   1138.75     0  01:50      1.45    1.40    1.00
  YS02001633YS02163601 CONDUIT   1364.88     0  01:20      1.74    1.43    1.00
  YS02001641YS02001644 CONDUIT   1364.43     0  01:20      1.74    4.41    1.00
  YS02001644YS02001647 CONDUIT   1779.15     0  01:20      2.28    1.05    1.00
  YS02001647YS02001649 CONDUIT   1786.23     0  01:20      2.34    0.94    1.00
  YS02001649YS02001757 CONDUIT   2075.54     0  01:20      2.64    1.26    1.00
  YS02001652YS02001649 CONDUIT   2429.06     0  01:44      3.09    1.20    1.00
  YS02001655YS02001652 CONDUIT   2429.04     0  01:37      3.09    1.18    1.00
  YS02001658YS02001655 CONDUIT   2731.29     0  01:45      3.48    1.16    1.00
  YS02001661YS02001658 CONDUIT   2783.52     0  01:40      3.54    1.09    1.00
  YS02001664YS02001661 CONDUIT   2783.57     0  01:44      3.54    0.87    1.00
  YS02001745YS02001748 CONDUIT   2910.20     0  01:38      3.71    1.12    1.00
  YS02001748YS02001751 CONDUIT   2391.30     0  01:39      3.04    1.21    1.00
  YS02001751YS02001754 CONDUIT   2391.50     0  01:39      3.04    1.15    1.00
  YS02001754YS02001757 CONDUIT   2391.93     0  01:39      3.05    0.96    1.00
  YS02001757CaochengTiaoxuchi CONDUIT   3784.54     0  01:35      6.50    1.64    1.00
  YS02001759YS02001757 CONDUIT   1679.50     0  01:43      2.14    1.19    1.00
  YS02001762YS02001759 CONDUIT    757.10     0  01:25      0.96    0.87    1.00
  YS02001765YS02001762 CONDUIT    756.96     0  01:25      0.96    0.71    1.00
  YS02001767YS02001765 CONDUIT    757.02     0  01:25      0.96    0.95    1.00
  YS02001770YS02001767 CONDUIT    757.14     0  01:25      0.96    3.00    1.00
  YS02001774YS02001770 CONDUIT    851.85     0  01:57      1.08    0.54    1.00
  YS02001779YS02001774 CONDUIT    851.56     0  01:51      1.08    0.43    1.00
  YS02001783YS02001784 CONDUIT   1321.63     0  01:40      2.63    1.82    1.00
  YS02001784YS02001785 CONDUIT   1322.55     0  01:38      2.63    3.08    1.00
  YS02001786YS02001788 CONDUIT   1322.56     0  01:38      2.74    2.55    0.92
  YS02001788YS02001790 CONDUIT   1334.37     0  01:35      2.91    0.98    0.89
  YS02001790YS02001791 CONDUIT   1376.95     0  01:34      3.54    1.50    0.74
  YS02001791YS02001793 CONDUIT   1380.06     0  01:34      6.61    0.59    0.46
  YS02001793JiankangQianchi CONDUIT   1465.02     0  01:34     24.83    0.12    0.50
  YS02001882YS02001884 CONDUIT     64.23     0  01:18      0.33    0.07    1.00
  YS02001884YS02001887 CONDUIT     99.85     0  01:14      0.26    0.13    1.00
  YS02001887YS02001890 CONDUIT   2052.03     0  01:44      2.61    3.51    1.00
  YS02001890YS02001895 CONDUIT    517.91     0  01:44      0.66    0.24    1.00
  YS02001895YS02001898 CONDUIT    517.72     0  01:59      0.66    0.90    1.00
  YS02001898YS02001901 CONDUIT    517.78     0  01:57      0.66    0.33    1.00
  YS02001901YS02001904 CONDUIT    517.68     0  01:57      0.66    0.80    1.00
  YS02001904YS02001907 CONDUIT    518.92     0  01:44      0.66    0.18    1.00
  YS02001907YS02006553 CONDUIT   2160.63     0  01:44      2.40    2.54    1.00
  YS02001910YS02001907 CONDUIT   1992.83     0  01:53      2.54    1.12    1.00
  YS02001915YS02001910 CONDUIT   1992.95     0  01:56      2.54    0.99    1.00
  YS02001918YS02001915 CONDUIT   1221.69     0  01:51      1.56    0.67    1.00
  YS02001920YS02001918 CONDUIT   1681.63     0  01:42      2.14    1.63    1.00
  YS02001923YS02001920 CONDUIT   1678.95     0  01:42      2.14    0.75    1.00
  YS02001926YS02001923 CONDUIT   1679.01     0  01:42      2.14    2.40    1.00
  YS02001929YS02001926 CONDUIT   1678.62     0  01:38      2.14    0.80    1.00
  YS02006553YS02006556 CONDUIT   2160.41     0  01:36      2.75    1.85    1.00
  YS02006556YS02006558 CONDUIT   2160.88     0  01:44      2.75    1.71    1.00
  YS02006558YS02006561 CONDUIT   1321.40     0  01:35      4.67    2.92    1.00
  YS02006561YS02001783 CONDUIT   1321.58     0  01:44      2.63    0.68    1.00
  YS02163301YS02001633 CONDUIT   1138.64     0  01:40      1.45    1.07    1.00
  YS02163601YS02164001 CONDUIT   1364.66     0  01:20      1.74    1.21    1.00
  YS02164001YS02001641 CONDUIT   1364.83     0  01:20      1.74    1.86    1.00
  YSB1154YSB6556       CONDUIT    725.69     0  02:27      1.89    1.30    1.00
  YSB1171HS02004479    CONDUIT    372.95     0  01:42      0.74    0.25    1.00
  YSB1174YSB1171       CONDUIT    750.69     0  02:27      1.95    1.15    1.00
  YSB6556YSB1171       CONDUIT    639.84     0  02:33      1.66    0.66    1.00
  CC-R1                PUMP       683.00     0  00:00              1.00
  CC-R2                PUMP       683.00     0  00:00              1.00
  CC-S1                PUMP       200.00     0  00:00              1.00
  CC-S2                PUMP       200.00     0  00:00              1.00
  JK-R1                PUMP      1000.00     0  00:00              1.00
  JK-R2                PUMP      1000.00     0  00:00              1.00
  JK-S                 PUMP       300.00     0  00:00              1.00
  XR-1                 PUMP        95.00     0  00:00              1.00
  XR-2                 PUMP        95.00     0  00:00              1.00
  XR-3                 PUMP        95.00     0  00:00              1.00
  XR-4                 PUMP        95.00     0  00:00              1.00
  
  
  ***************************
  Flow Classification Summary
  ***************************
  
  -------------------------------------------------------------------------------------
                      Adjusted    ---------- Fraction of Time in Flow Class ---------- 
                       /Actual         Up    Down  Sub   Sup   Up    Down  Norm  Inlet 
  Conduit               Length    Dry  Dry   Dry   Crit  Crit  Crit  Crit  Ltd   Ctrl  
  -------------------------------------------------------------------------------------
  1                       1.00   0.00  0.00  0.00  0.00  1.00  0.00  0.00  0.45  0.00
  HS02004478WS02006287    1.00   0.12  0.00  0.00  0.71  0.17  0.00  0.00  0.54  0.00
  HS02004479HS02004480    1.00   0.05  0.00  0.00  0.95  0.00  0.00  0.00  0.09  0.00
  HS02004480HS02004478    1.00   0.11  0.00  0.00  0.68  0.00  0.00  0.20  0.00  0.00
  HS02004770HS02004777    1.00   0.00  0.11  0.00  0.89  0.00  0.00  0.00  0.01  0.00
  HS02004777HS02004785    1.00   0.00  0.00  0.00  1.00  0.00  0.00  0.00  0.09  0.00
  HS02004785HS02004788    1.00   0.00  0.00  0.00  1.00  0.00  0.00  0.00  0.00  0.00
  HS02004788HS02004792    1.00   0.00  0.00  0.00  0.99  0.01  0.00  0.00  0.77  0.00
  HS02004792HS02004799    1.00   0.00  0.00  0.00  0.99  0.01  0.00  0.00  0.74  0.00
  HS02004799HS02004480    1.00   0.00  0.05  0.00  0.88  0.00  0.07  0.00  0.00  0.00
  HS02004802HS02004478    1.00   0.11  0.00  0.00  0.89  0.00  0.00  0.00  0.01  0.00
  HS02004807HS02004802    1.00   0.11  0.00  0.00  0.88  0.00  0.00  0.01  0.00  0.00
  HS02004817HS02004807    1.00   0.00  0.11  0.00  0.89  0.00  0.00  0.00  0.01  0.00
  HS02004817HS02004824    1.00   0.00  0.00  0.00  1.00  0.00  0.00  0.00  0.73  0.00
  HS02004824HS02004830    1.00   0.00  0.00  0.00  1.00  0.00  0.00  0.00  0.00  0.00
  HS02004830HS02004837    1.00   0.00  0.00  0.00  1.00  0.00  0.00  0.00  0.75  0.00
  HS02004837HS02004842    1.00   0.00  0.00  0.00  1.00  0.00  0.00  0.00  0.11  0.00
  HS02004842HS02004848    1.00   0.00  0.11  0.00  0.89  0.00  0.00  0.00  0.49  0.00
  HS02004848HS02004852    1.00   0.11  0.00  0.00  0.89  0.00  0.00  0.00  0.61  0.00
  HS02004852HS02004856    1.00   0.11  0.00  0.00  0.89  0.00  0.00  0.00  0.59  0.00
  HS02004856HS02004862    1.00   0.00  0.12  0.00  0.88  0.00  0.00  0.00  0.63  0.00
  HS02004862HS02004870    1.00   0.00  0.00  0.00  1.00  0.00  0.00  0.00  0.01  0.00
  HS02004870HS02004876    1.00   0.00  0.00  0.00  0.98  0.02  0.00  0.00  0.72  0.00
  HS02004876HS02004881    1.00   0.02  0.00  0.00  0.84  0.14  0.00  0.00  0.00  0.00
  HS02004881HS02006253    1.00   0.00  0.07  0.00  0.61  0.01  0.00  0.31  0.18  0.00
  HS02004901HS02004770    1.00   0.11  0.00  0.00  0.89  0.00  0.00  0.00  0.00  0.00
  WS02001211WS02001212    1.00   0.00  0.02  0.00  0.98  0.00  0.00  0.00  0.00  0.00
  WS02001212WS02001213    1.00   0.02  0.00  0.00  0.64  0.00  0.34  0.00  0.00  0.00
  WS02001213WS02003059    1.00   0.00  0.00  0.00  0.99  0.00  0.00  0.00  0.00  0.00
  WS02003059WS02003060    1.00   0.00  0.00  0.00  1.00  0.00  0.00  0.00  0.03  0.00
  WS02003060WS02003069    1.00   0.00  0.00  0.00  0.97  0.03  0.00  0.00  0.50  0.00
  WS02003066WSF200        1.00   0.07  0.00  0.00  0.00  0.93  0.00  0.00  0.56  0.00
  WS02003067WS02003066    1.00   0.06  0.00  0.00  0.93  0.00  0.00  0.00  0.00  0.00
  WS02003069WS02003072    1.00   0.00  0.00  0.00  1.00  0.00  0.00  0.00  0.52  0.00
  WS02003072WS02003073    1.00   0.00  0.00  0.00  0.00  0.00  0.00  1.00  0.00  0.00
  WS02004138WS02004139    1.00   0.00  0.01  0.00  0.97  0.01  0.00  0.01  0.98  0.00
  WS02004139WS02001211    1.00   0.00  0.00  0.00  0.99  0.00  0.00  0.00  0.00  0.00
  WS02004401WS02004402    1.00   0.02  0.00  0.00  0.98  0.00  0.00  0.00  0.00  0.00
  WS02004402WS02004403    1.00   0.02  0.00  0.00  0.97  0.00  0.00  0.00  0.00  0.00
  WS02004403WS02004404    1.00   0.00  0.03  0.00  0.97  0.00  0.00  0.00  0.00  0.00
  WS02004404WS02004405    1.00   0.00  0.00  0.00  1.00  0.00  0.00  0.00  0.00  0.00
  WS02004405WS02004406    1.00   0.00  0.00  0.00  1.00  0.00  0.00  0.00  0.00  0.00
  WS02004406WS02004407    1.00   0.00  0.05  0.00  0.95  0.00  0.00  0.00  0.00  0.00
  WS02004407WS02004409    1.00   0.05  0.00  0.00  0.93  0.02  0.00  0.00  0.71  0.00
  WS02004409WS02004410    1.00   0.05  0.00  0.00  0.95  0.00  0.00  0.00  0.00  0.00
  WS02004410WS02004411    1.00   0.05  0.00  0.00  0.95  0.00  0.00  0.00  0.00  0.00
  WS02004411WS02004412    1.00   0.05  0.00  0.00  0.95  0.00  0.00  0.00  0.00  0.00
  WS02004412WS02004413    1.00   0.05  0.00  0.00  0.95  0.00  0.00  0.00  0.00  0.00
  WS02004413WS02003067    1.00   0.05  0.01  0.00  0.00  0.00  0.94  0.00  0.00  0.00
  WS02006109WS02006110    1.00   0.00  0.01  0.00  0.99  0.00  0.01  0.00  0.00  0.00
  WS02006110WS02006113    1.00   0.01  0.01  0.00  0.99  0.00  0.00  0.00  0.00  0.00
  WS02006111WS02006112    1.00   0.02  0.00  0.00  0.98  0.00  0.00  0.00  0.67  0.00
  WS02006112WS02006115    1.00   0.02  0.00  0.00  0.97  0.00  0.01  0.00  0.00  0.00
  WS02006113WS02006111    1.00   0.01  0.00  0.00  0.46  0.52  0.00  0.00  0.08  0.00
  WS02006115WS02006116    1.00   0.02  0.00  0.00  0.97  0.00  0.00  0.01  0.00  0.00
  WS02006116WS02004401    1.00   0.02  0.00  0.00  0.98  0.00  0.00  0.00  0.00  0.00
  WS02006228WS02006109    1.00   0.00  0.00  0.00  1.00  0.00  0.00  0.00  0.00  0.00
  WS02006229WS02006228    1.00   0.00  0.00  0.00  0.99  0.00  0.00  0.01  0.00  0.00
  WS02006230WS02006229    1.00   0.00  0.00  0.00  0.99  0.00  0.00  0.01  0.03  0.00
  WS02006231WS02006230    1.00   0.00  0.00  0.00  0.68  0.00  0.31  0.00  0.00  0.00
  WS02006232WS02006231    1.00   0.00  0.00  0.00  1.00  0.00  0.00  0.00  0.00  0.00
  WS02006234WS02006232    1.00   0.00  0.00  0.00  1.00  0.00  0.00  0.00  0.05  0.00
  WS02006235WS02006234    1.00   0.00  0.00  0.00  0.87  0.00  0.13  0.00  0.00  0.00
  WS02006238WS02006235    1.00   0.00  0.00  0.00  1.00  0.00  0.00  0.00  0.01  0.00
  WS02006239WS02006238    1.00   0.00  0.00  0.00  1.00  0.00  0.00  0.00  0.19  0.00
  WS02006240WS02006239    1.00   0.00  0.00  0.00  0.80  0.00  0.00  0.20  0.02  0.00
  WS02006242WS02006240    1.00   0.00  0.00  0.00  0.99  0.00  0.01  0.00  0.00  0.00
  WS02006243WS02006242    1.00   0.00  0.00  0.00  0.99  0.00  0.00  0.01  0.51  0.00
  WS02006245WS02006243    1.00   0.00  0.00  0.00  0.93  0.00  0.00  0.06  0.00  0.00
  WS02006247WS02006245    1.00   0.00  0.00  0.00  0.99  0.00  0.00  0.01  0.00  0.00
  WS02006248WS02006247    1.00   0.00  0.00  0.00  1.00  0.00  0.00  0.00  0.51  0.00
  WS02006249WS02006248    1.00   0.00  0.00  0.00  0.72  0.00  0.28  0.00  0.00  0.00
  WS02006251WS02006249    1.00   0.00  0.00  0.00  1.00  0.00  0.00  0.00  0.50  0.00
  WS02006252WS02006251    1.00   0.00  0.00  0.00  0.59  0.00  0.41  0.00  0.00  0.00
  WS02006253WS02006251    1.00   0.00  0.00  0.00  0.98  0.00  0.02  0.00  0.00  0.00
  WS02006256WS02006235    1.00   0.00  0.00  0.00  0.99  0.01  0.00  0.00  0.01  0.00
  WS02006280WS02006229    1.00   0.12  0.00  0.00  0.42  0.04  0.00  0.43  0.01  0.00
  WS02006284WS02006280    1.00   0.12  0.00  0.00  0.41  0.00  0.00  0.47  0.00  0.00
  WS02006287WS02006284    1.00   0.10  0.02  0.00  0.63  0.24  0.00  0.01  0.60  0.00
  WSF200WS02003060        1.00   0.00  0.07  0.00  0.30  0.63  0.00  0.00  0.51  0.00
  YS02001580YS02001583    1.00   0.14  0.30  0.00  0.56  0.00  0.00  0.00  0.60  0.00
  YS02001583YS02001586    1.00   0.24  0.15  0.00  0.60  0.00  0.00  0.00  0.60  0.00
  YS02001586YS02001590    1.00   0.11  0.00  0.00  0.69  0.02  0.00  0.17  0.28  0.00
  YS02001590YS02001593    1.00   0.11  0.00  0.00  0.44  0.00  0.45  0.00  0.00  0.00
  YS02001593YS02001596    1.00   0.11  0.00  0.00  0.46  0.01  0.00  0.42  0.01  0.00
  YS02001596YS02001600    1.00   0.11  0.00  0.00  0.50  0.01  0.00  0.37  0.02  0.00
  YS02001600YS02001601    1.00   0.11  0.00  0.00  0.89  0.00  0.00  0.00  0.53  0.00
  YS02001601YS02001602    1.00   0.11  0.00  0.00  0.89  0.00  0.00  0.00  0.00  0.00
  YS02001602YS02001605    1.00   0.11  0.00  0.00  0.89  0.00  0.00  0.00  0.00  0.00
  YS02001605YS02001607    1.00   0.11  0.00  0.00  0.89  0.00  0.00  0.00  0.00  0.00
  YS02001607YS02001610    1.00   0.11  0.00  0.00  0.89  0.00  0.00  0.00  0.00  0.00
  YS02001610YS02001613    1.00   0.11  0.00  0.00  0.89  0.00  0.00  0.00  0.00  0.00
  YS02001613YS02001616    1.00   0.11  0.00  0.00  0.89  0.00  0.00  0.00  0.00  0.00
  YS02001616YS02001619    1.00   0.11  0.00  0.00  0.89  0.00  0.00  0.00  0.00  0.00
  YS02001619YS02001622    1.00   0.11  0.00  0.00  0.88  0.01  0.00  0.00  0.25  0.00
  YS02001622YS02001625    1.00   0.11  0.00  0.00  0.88  0.00  0.00  0.00  0.01  0.00
  YS02001625YS02001629    1.00   0.11  0.01  0.00  0.50  0.00  0.38  0.00  0.00  0.00
  YS02001629YS02163301    1.00   0.12  0.00  0.00  0.88  0.00  0.00  0.00  0.00  0.00
  YS02001633YS02163601    1.00   0.00  0.00  0.00  1.00  0.00  0.00  0.00  0.13  0.00
  YS02001641YS02001644    1.00   0.00  0.00  0.00  1.00  0.00  0.00  0.00  0.00  0.00
  YS02001644YS02001647    1.00   0.00  0.12  0.00  0.88  0.00  0.00  0.00  0.00  0.00
  YS02001647YS02001649    1.00   0.00  0.12  0.00  0.72  0.16  0.00  0.00  0.53  0.00
  YS02001649YS02001757    1.00   0.00  0.00  0.00  0.87  0.13  0.00  0.00  0.34  0.00
  YS02001652YS02001649    1.00   0.00  0.00  0.00  0.99  0.01  0.00  0.00  0.64  0.00
  YS02001655YS02001652    1.00   0.00  0.00  0.00  0.55  0.00  0.00  0.45  0.02  0.00
  YS02001658YS02001655    1.00   0.00  0.11  0.00  0.81  0.08  0.00  0.00  0.56  0.00
  YS02001661YS02001658    1.00   0.11  0.00  0.00  0.66  0.23  0.00  0.00  0.59  0.00
  YS02001664YS02001661    1.00   0.11  0.00  0.00  0.84  0.05  0.00  0.00  0.68  0.00
  YS02001745YS02001748    1.00   0.00  0.00  0.00  0.46  0.00  0.00  0.54  0.03  0.00
  YS02001748YS02001751    1.00   0.00  0.00  0.00  0.94  0.06  0.00  0.00  0.67  0.00
  YS02001751YS02001754    1.00   0.00  0.00  0.00  0.54  0.01  0.00  0.46  0.02  0.00
  YS02001754YS02001757    1.00   0.00  0.00  0.00  1.00  0.00  0.00  0.00  0.67  0.00
  YS02001757CaochengTiaoxuchi    1.00   0.00  0.00  0.00  0.69  0.31  0.00  0.00  0.40  0.00
  YS02001759YS02001757    1.00   0.00  0.00  0.00  1.00  0.00  0.00  0.00  0.62  0.00
  YS02001762YS02001759    1.00   0.00  0.00  0.00  1.00  0.00  0.00  0.00  0.01  0.00
  YS02001765YS02001762    1.00   0.00  0.00  0.00  1.00  0.00  0.00  0.00  0.63  0.00
  YS02001767YS02001765    1.00   0.00  0.00  0.00  1.00  0.00  0.00  0.00  0.00  0.00
  YS02001770YS02001767    1.00   0.00  0.00  0.00  1.00  0.00  0.00  0.00  0.00  0.00
  YS02001774YS02001770    1.00   0.00  0.11  0.00  0.81  0.00  0.07  0.00  0.00  0.00
  YS02001779YS02001774    1.00   0.00  0.00  0.00  1.00  0.00  0.00  0.00  0.65  0.00
  YS02001783YS02001784    1.00   0.00  0.12  0.00  0.88  0.00  0.00  0.00  0.52  0.00
  YS02001784YS02001785    1.00   0.00  0.00  0.00  1.00  0.00  0.00  0.00  0.13  0.00
  YS02001786YS02001788    1.00   0.00  0.00  0.00  0.81  0.19  0.00  0.00  0.00  0.00
  YS02001788YS02001790    1.00   0.00  0.00  0.00  0.31  0.69  0.00  0.00  0.73  0.00
  YS02001790YS02001791    1.00   0.00  0.00  0.00  0.01  0.99  0.00  0.00  0.09  0.00
  YS02001791YS02001793    1.00   0.00  0.00  0.00  0.00  1.00  0.00  0.00  0.04  0.00
  YS02001793JiankangQianchi    1.00   0.00  0.00  0.00  0.10  0.90  0.00  0.00  0.55  0.00
  YS02001882YS02001884    1.00   0.12  0.00  0.00  0.88  0.00  0.00  0.00  0.00  0.00
  YS02001884YS02001887    1.00   0.08  0.03  0.00  0.89  0.00  0.00  0.00  0.00  0.00
  YS02001887YS02001890    1.00   0.00  0.00  0.00  0.96  0.00  0.03  0.00  0.00  0.00
  YS02001890YS02001895    1.00   0.00  0.11  0.00  0.88  0.00  0.00  0.00  0.00  0.00
  YS02001895YS02001898    1.00   0.12  0.00  0.00  0.88  0.00  0.00  0.00  0.00  0.00
  YS02001898YS02001901    1.00   0.12  0.00  0.00  0.88  0.00  0.00  0.00  0.00  0.00
  YS02001901YS02001904    1.00   0.12  0.00  0.00  0.88  0.00  0.00  0.00  0.00  0.00
  YS02001904YS02001907    1.00   0.00  0.12  0.00  0.88  0.00  0.00  0.00  0.00  0.00
  YS02001907YS02006553    1.00   0.00  0.02  0.00  0.98  0.00  0.00  0.00  0.00  0.00
  YS02001910YS02001907    1.00   0.00  0.00  0.00  0.97  0.01  0.00  0.03  0.11  0.00
  YS02001915YS02001910    1.00   0.00  0.00  0.00  0.98  0.02  0.00  0.00  0.11  0.00
  YS02001918YS02001915    1.00   0.00  0.00  0.00  0.97  0.02  0.00  0.00  0.63  0.00
  YS02001920YS02001918    1.00   0.00  0.00  0.00  1.00  0.00  0.00  0.00  0.00  0.00
  YS02001923YS02001920    1.00   0.00  0.00  0.00  1.00  0.00  0.00  0.00  0.77  0.00
  YS02001926YS02001923    1.00   0.00  0.09  0.00  0.38  0.00  0.54  0.00  0.00  0.00
  YS02001929YS02001926    1.00   0.00  0.11  0.00  0.89  0.00  0.00  0.00  0.66  0.00
  YS02006553YS02006556    1.00   0.01  0.00  0.00  0.99  0.00  0.00  0.00  0.03  0.00
  YS02006556YS02006558    1.00   0.00  0.00  0.00  1.00  0.00  0.00  0.00  0.00  0.00
  YS02006558YS02006561    1.00   0.12  0.00  0.00  0.37  0.51  0.00  0.00  0.13  0.00
  YS02006561YS02001783    1.00   0.12  0.00  0.00  0.40  0.48  0.00  0.00  0.60  0.00
  YS02163301YS02001633    1.00   0.00  0.12  0.00  0.88  0.00  0.00  0.00  0.00  0.00
  YS02163601YS02164001    1.00   0.00  0.09  0.00  0.91  0.00  0.00  0.00  0.00  0.00
  YS02164001YS02001641    1.00   0.00  0.09  0.00  0.91  0.00  0.00  0.00  0.05  0.00
  YSB1154YSB6556          1.00   0.11  0.00  0.00  0.89  0.00  0.00  0.00  0.01  0.00
  YSB1171HS02004479       1.00   0.05  0.00  0.00  0.93  0.00  0.00  0.02  0.09  0.00
  YSB1174YSB1171          1.00   0.07  0.03  0.00  0.90  0.00  0.00  0.00  0.00  0.00
  YSB6556YSB1171          1.00   0.05  0.06  0.00  0.89  0.00  0.00  0.00  0.00  0.00
  
  
  *************************
  Conduit Surcharge Summary
  *************************
  
  ----------------------------------------------------------------------------
                                                           Hours        Hours 
                         --------- Hours Full --------   Above Full   Capacity
  Conduit                Both Ends  Upstream  Dnstream   Normal Flow   Limited
  ----------------------------------------------------------------------------
  HS02004478WS02006287        1.56      1.56      1.75      0.01         0.01
  HS02004479HS02004480        1.74      1.74      1.77      0.01         0.01
  HS02004480HS02004478        1.66      1.73      1.66      2.31         1.66
  HS02004770HS02004777        1.62      1.62      1.63      0.12         0.10
  HS02004777HS02004785        1.57      1.57      1.63      0.01         0.01
  HS02004785HS02004788        1.56      1.57      1.56      1.95         1.02
  HS02004788HS02004792        1.56      1.56      1.70      0.01         0.01
  HS02004792HS02004799        1.70      1.70      1.84      0.01         0.01
  HS02004799HS02004480        1.73      1.73      1.84      1.90         0.01
  HS02004802HS02004478        1.68      1.68      1.76      0.81         0.01
  HS02004807HS02004802        1.72      1.72      1.75      1.16         1.17
  HS02004817HS02004807        1.72      1.72      2.08      0.01         0.01
  HS02004817HS02004824        1.58      1.58      2.08      0.01         0.01
  HS02004824HS02004830        1.55      1.55      1.58      0.11         0.12
  HS02004830HS02004837        1.48      1.48      1.55      0.02         0.03
  HS02004837HS02004842        1.48      1.48      1.65      0.01         0.01
  HS02004842HS02004848        1.48      1.48      1.65      0.01         0.01
  HS02004848HS02004852        1.48      1.48      1.50      0.01         0.08
  HS02004852HS02004856        1.50      1.50      1.52      0.17         0.11
  HS02004856HS02004862        1.50      1.50      1.53      0.01         0.01
  HS02004862HS02004870        1.53      1.53      1.54      0.54         0.56
  HS02004870HS02004876        1.54      1.54      1.61      0.01         0.01
  HS02004876HS02004881        1.59      1.61      1.59      2.24         1.59
  HS02004881HS02006253        1.59      1.59      3.11      0.01         0.01
  HS02004901HS02004770        1.62      1.62      1.63      1.00         0.01
  WS02003072WS02003073        0.01      0.01      0.01      3.45         0.01
  WS02004401WS02004402        2.26      2.26      2.29      2.09         2.05
  WS02004402WS02004403        2.29      2.29      2.30      2.26         2.24
  WS02004403WS02004404        2.30      2.30      2.49      0.36         0.31
  WS02004404WS02004405        2.44      2.49      2.44      4.02         2.44
  WS02004405WS02004406        2.40      2.44      2.40      2.90         2.40
  WS02004406WS02004407        0.47      0.47      2.40      0.01         0.01
  WS02004407WS02004409        0.47      0.47      1.88      0.01         0.01
  WS02004409WS02004410        1.88      1.88      1.88      2.16         1.88
  WS02004410WS02004411        1.87      1.88      1.87      2.21         1.86
  WS02004411WS02004412        1.82      1.87      1.82      2.25         1.82
  WS02004412WS02004413        1.82      1.82      2.03      0.01         0.01
  WS02004413WS02003067        0.01      0.01      2.03      0.01         0.01
  WS02006109WS02006110        2.81      2.81      3.42      2.83         0.01
  WS02006110WS02006113        2.01      2.01      3.38      0.45         0.01
  WS02006111WS02006112        1.99      1.99      3.49      0.01         0.01
  WS02006112WS02006115        2.16      2.16      3.03      0.01         0.01
  WS02006113WS02006111        2.00      2.01      2.00      2.09         1.86
  WS02006115WS02006116        2.17      2.17      2.17      2.16         2.13
  WS02006116WS02004401        2.25      2.25      2.26      2.23         2.21
  WS02006228WS02006109        3.33      3.42      3.33      3.70         3.32
  WS02006229WS02006228        3.31      3.36      3.31      3.58         3.30
  WS02006230WS02006229        3.49      3.52      3.49      4.08         1.44
  WS02006231WS02006230        2.54      2.54      2.87      3.89         1.98
  WS02006232WS02006231        2.83      2.83      3.36      0.01         0.37
  WS02006234WS02006232        3.16      3.16      3.36      0.01         0.05
  WS02006235WS02006234        3.14      3.15      3.24      3.71         1.94
  WS02006238WS02006235        3.27      3.27      3.36      0.01         0.43
  WS02006239WS02006238        3.29      3.33      3.29      3.19         1.16
  WS02006240WS02006239        3.24      3.27      3.24      3.18         1.09
  WS02006242WS02006240        3.25      3.25      3.40      3.32         1.75
  WS02006243WS02006242        3.28      3.28      3.37      0.01         0.02
  WS02006245WS02006243        3.26      3.27      3.26      1.28         1.06
  WS02006247WS02006245        3.26      3.30      3.26      3.54         1.26
  WS02006248WS02006247        3.26      3.26      3.29      0.01         0.07
  WS02006249WS02006248        3.24      3.24      3.28      1.54         0.01
  WS02006251WS02006249        3.28      3.30      3.28      3.49         3.26
  WS02006252WS02006251        3.51      3.51      3.51      2.70         0.65
  WS02006253WS02006251        3.29      3.29      3.32      1.87         0.01
  WS02006256WS02006235        3.76      3.80      6.49      0.09         0.19
  WS02006280WS02006229        1.86      1.86      1.91      0.01         0.01
  WS02006284WS02006280        1.77      1.77      1.85      0.01         0.01
  WS02006287WS02006284        1.66      1.66      1.78      1.27         1.27
  YS02001580YS02001583        1.81      1.81      1.84      0.01         0.01
  YS02001583YS02001586        1.82      1.82      1.91      0.01         0.01
  YS02001586YS02001590        1.92      1.92      1.97      0.01         0.01
  YS02001590YS02001593        1.97      1.97      1.98      1.99         0.01
  YS02001593YS02001596        1.98      1.98      2.05      0.01         0.01
  YS02001596YS02001600        2.08      2.08      2.14      0.01         0.01
  YS02001600YS02001601        2.18      2.18      2.35      0.01         0.01
  YS02001601YS02001602        2.29      2.29      2.37      2.11         0.01
  YS02001602YS02001605        2.27      2.27      2.29      2.87         0.01
  YS02001605YS02001607        2.25      2.27      2.26      2.23         2.16
  YS02001607YS02001610        1.98      1.98      2.00      0.01         0.01
  YS02001610YS02001613        1.98      1.98      2.00      0.01         0.01
  YS02001613YS02001616        1.95      1.95      1.98      0.01         0.01
  YS02001616YS02001619        1.94      1.94      1.95      0.73         0.48
  YS02001619YS02001622        1.94      1.94      1.94      1.89         1.77
  YS02001622YS02001625        1.94      1.94      2.09      0.01         0.01
  YS02001625YS02001629        1.92      1.92      2.09      0.01         0.01
  YS02001629YS02163301        2.10      2.10      2.12      0.51         0.06
  YS02001633YS02163601        2.14      2.14      2.18      0.09         0.11
  YS02001641YS02001644        2.12      2.14      2.12      2.41         1.94
  YS02001644YS02001647        1.96      1.96      2.12      0.04         0.01
  YS02001647YS02001649        1.96      1.96      2.09      0.01         0.01
  YS02001649YS02001757        2.08      2.09      2.16      0.10         0.05
  YS02001652YS02001649        1.94      1.94      2.09      0.27         0.27
  YS02001655YS02001652        1.79      1.79      1.92      0.26         0.26
  YS02001658YS02001655        1.63      1.63      1.79      0.22         0.22
  YS02001661YS02001658        0.66      0.66      1.63      0.20         0.20
  YS02001664YS02001661        0.39      0.39      0.88      0.01         0.01
  YS02001745YS02001748        0.35      0.35      1.52      0.05         0.05
  YS02001748YS02001751        1.62      1.62      1.74      0.12         0.12
  YS02001751YS02001754        1.74      1.74      1.87      0.11         0.11
  YS02001754YS02001757        1.90      1.90      2.16      0.01         0.01
  YS02001757CaochengTiaoxuchi        1.77      2.16      2.20      1.11         0.68
  YS02001759YS02001757        2.08      2.08      2.16      0.31         0.33
  YS02001762YS02001759        2.05      2.05      2.08      0.01         0.02
  YS02001765YS02001762        2.02      2.02      2.05      0.01         0.01
  YS02001767YS02001765        1.99      1.99      2.02      0.01         0.03
  YS02001770YS02001767        1.98      1.99      1.99      1.68         1.27
  YS02001774YS02001770        1.97      1.97      2.04      0.01         0.01
  YS02001779YS02001774        1.86      1.86      2.04      0.01         0.01
  YS02001783YS02001784        1.75      1.77      1.75      1.86         1.75
  YS02001784YS02001785        1.66      1.75      1.66      1.95         1.66
  YS02001786YS02001788        0.01      1.66      0.01      1.91         0.01
  YS02001790YS02001791        0.01      0.01      0.01      1.74         0.01
  YS02001882YS02001884        1.73      1.73      1.74      0.01         0.01
  YS02001884YS02001887        1.76      1.76      1.77      0.01         0.01
  YS02001887YS02001890        1.77      1.77      1.78      0.77         0.01
  YS02001890YS02001895        1.72      1.72      1.79      0.01         0.01
  YS02001895YS02001898        1.71      1.71      1.72      0.01         0.01
  YS02001898YS02001901        1.73      1.73      1.75      0.01         0.01
  YS02001901YS02001904        1.75      1.75      1.75      0.01         0.01
  YS02001904YS02001907        1.75      1.75      1.91      0.01         0.01
  YS02001907YS02006553        1.95      1.95      1.99      0.33         0.34
  YS02001910YS02001907        1.79      1.79      1.89      0.57         0.57
  YS02001915YS02001910        1.73      1.73      1.79      0.01         0.09
  YS02001918YS02001915        1.63      1.63      1.73      0.01         0.01
  YS02001920YS02001918        1.63      1.63      1.66      0.34         0.01
  YS02001923YS02001920        1.54      1.54      1.66      0.01         0.01
  YS02001926YS02001923        0.79      0.79      0.86      0.51         0.01
  YS02001929YS02001926        0.60      0.60      0.86      0.01         0.01
  YS02006553YS02006556        1.84      1.84      1.91      0.28         0.28
  YS02006556YS02006558        1.87      1.87      1.91      0.26         0.01
  YS02006558YS02006561        1.69      1.84      1.69      1.94         1.69
  YS02006561YS02001783        1.57      1.57      1.77      0.01         0.01
  YS02163301YS02001633        2.12      2.12      2.16      0.36         0.01
  YS02163601YS02164001        2.13      2.13      2.18      0.07         0.01
  YS02164001YS02001641        2.13      2.13      2.14      0.72         0.76
  YSB1154YSB6556              1.82      1.82      1.92      0.45         0.01
  YSB1171HS02004479           1.70      1.70      1.92      0.01         0.01
  YSB1174YSB1171              1.88      1.88      2.02      0.28         0.28
  YSB6556YSB1171              1.82      1.82      2.09      0.01         0.01
  
  
  ***************
  Pumping Summary
  ***************
  
  ---------------------------------------------------------------------------------------------------------
                                                  Min       Avg       Max     Total     Power    % Time Off
                        Percent   Number of      Flow      Flow      Flow    Volume     Usage    Pump Curve
  Pump                 Utilized   Start-Ups       LPS       LPS       LPS  10^6 ltr     Kw-hr    Low   High
  ---------------------------------------------------------------------------------------------------------
  CC-R1                   43.84           2      0.00    683.00    683.00     8.624    159.42    0.0   61.4
  CC-R2                   43.84           2      0.00    683.00    683.00     8.624    159.42    0.0   61.4
  CC-S1                   43.84           2      0.00    200.00    200.00     2.525     17.42    0.0   37.2
  CC-S2                   43.84           2      0.00    200.00    200.00     2.525     17.42    0.0   37.2
  JK-R1                   13.87         582      0.00    997.10   1000.00     3.967      9.55    0.0    0.0
  JK-R2                   13.87         582      0.00    997.10   1000.00     3.967      9.55    0.0    0.0
  JK-S                    13.87         582      0.00    299.85    300.00     1.196     27.35    0.0    0.0
  XR-1                    97.91           2      0.00     95.00     95.00     2.679      9.63    0.0    0.0
  XR-2                    93.94           2      0.00     95.00     95.00     2.570      8.78    0.0    0.0
  XR-3                     0.00           1      0.00     95.00     95.00     0.000      0.00    0.0    0.0
  XR-4                     0.00           1      0.00     95.00     95.00     0.000      0.00    0.0    0.0
  

  Analysis begun on:  Tue Jul 11 11:21:27 2023
  Analysis ended on:  Tue Jul 11 11:21:33 2023
  Total elapsed time: 00:00:06