
  EPA STORM WATER MANAGEMENT MODEL - VERSION 5.1 (Build 5.3.0.dev0)
  --------------------------------------------------------------

  WARNING 04: minimum elevation drop used for Conduit WS02004404WS02004405
  WARNING 03: negative offset ignored for Link YS02001904YS02001907
  
  *********************************************************
  NOTE: The summary statistics displayed in this report are
  based on results found at every computational time step,  
  not just on results from each reporting time step.
  *********************************************************
  
  ****************
  Analysis Options
  ****************
  Flow Units ............... LPS
  Process Models:
    Rainfall/Runoff ........ YES
    RDII ................... NO
    Snowmelt ............... NO
    Groundwater ............ NO
    Flow Routing ........... YES
    Ponding Allowed ........ NO
    Water Quality .......... NO
  Infiltration Method ...... HORTON
  Flow Routing Method ...... DYNWAVE
  Surcharge Method ......... EXTRAN
  Starting Date ............ 08/28/2015 08:00:00
  Ending Date .............. 08/28/2015 16:00:00
  Antecedent Dry Days ...... 8.0
  Report Time Step ......... 00:01:00
  Wet Time Step ............ 00:01:00
  Dry Time Step ............ 00:01:00
  Routing Time Step ........ 30.00 sec
  Variable Time Step ....... YES
  Maximum Trials ........... 8
  Number of Threads ........ 4
  Head Tolerance ........... 0.001500 m
  
  
  **************************        Volume         Depth
  Runoff Quantity Continuity     hectare-m            mm
  **************************     ---------       -------
  Total Precipitation ......         7.672       126.646
  Evaporation Loss .........         0.000         0.000
  Infiltration Loss ........         0.255         4.216
  Surface Runoff ...........         7.357       121.450
  Final Storage ............         0.061         1.009
  Continuity Error (%) .....        -0.024
  
  
  **************************        Volume        Volume
  Flow Routing Continuity        hectare-m      10^6 ltr
  **************************     ---------     ---------
  Dry Weather Inflow .......         0.630         6.296
  Wet Weather Inflow .......         7.357        73.569
  Groundwater Inflow .......         0.000         0.000
  RDII Inflow ..............         0.000         0.000
  External Inflow ..........         0.105         1.045
  External Outflow .........         3.630        36.304
  Flooding Loss ............         4.636        46.363
  Evaporation Loss .........         0.000         0.000
  Exfiltration Loss ........         0.000         0.000
  Initial Stored Volume ....         0.303         3.031
  Final Stored Volume ......         0.179         1.789
  Continuity Error (%) .....        -0.614
  
  
  *************************
  Highest Continuity Errors
  *************************
  Node JK-storage (-8.76%)
  Node WS02006256 (5.52%)
  Node YS02001884 (5.08%)
  Node YS02001583 (-2.96%)
  
  
  ***************************
  Time-Step Critical Elements
  ***************************
  Link WS02006280WS02006229 (36.95%)
  Link YS02001793JiankangQianchi (26.28%)
  Link WS02006238WS02006235 (10.56%)
  Link WS02004404WS02004405 (4.61%)
  Link WS02006252WS02006251 (3.64%)
  
  
  ********************************
  Highest Flow Instability Indexes
  ********************************
  Link WS02004404WS02004405 (43)
  Link WS02006229WS02006228 (41)
  Link WS02006252WS02006251 (40)
  Link WS02004403WS02004404 (37)
  Link WS02006113WS02006111 (32)
  
  
  *************************
  Routing Time Step Summary
  *************************
  Minimum Time Step           :     0.00 sec
  Average Time Step           :     2.20 sec
  Maximum Time Step           :     6.46 sec
  Percent in Steady State     :    -0.00
  Average Iterations per Step :     5.06
  Percent Not Converging      :    38.52
  
  
  ***************************
  Subcatchment Runoff Summary
  ***************************
  
  ------------------------------------------------------------------------------------------------------------------------------
                            Total      Total      Total      Total     Imperv       Perv      Total       Total     Peak  Runoff
                           Precip      Runon       Evap      Infil     Runoff     Runoff     Runoff      Runoff   Runoff   Coeff
  Subcatchment                 mm         mm         mm         mm         mm         mm         mm    10^6 ltr      LPS
  ------------------------------------------------------------------------------------------------------------------------------
  sub0                     126.65       0.00       0.00       1.05     116.55       7.82     124.38        0.10    76.31   0.982
  sub1                     126.65       0.00       0.00       1.80     111.48      12.13     123.62        0.82   533.89   0.976
  sub10                    126.65       0.00       0.00       1.27     115.25       8.87     124.12        1.37   901.49   0.980
  sub11                    126.65       0.00       0.00       1.25     115.27       8.89     124.16        1.44   992.68   0.980
  sub12                    126.65       0.00       0.00       2.03     109.03      14.44     123.47        1.08   793.18   0.975
  sub14                    126.65       0.00       0.00       1.42     114.01       9.98     123.98        1.18   793.24   0.979
  sub15                    126.65       0.00       0.00       5.59      87.69      32.41     120.10        2.07  1284.94   0.948
  sub16                    126.65       0.00       0.00       5.78      83.96      36.02     119.98        1.26   845.15   0.947
  sub17                    126.65       0.00       0.00       5.64      85.21      34.90     120.11        1.03   686.55   0.948
  sub2                     126.65       0.00       0.00       8.01      78.89      38.85     117.74        1.10   585.27   0.930
  sub22                    126.65       0.00       0.00       8.48      71.42      45.99     117.40        7.42  4377.19   0.927
  sub23                    126.65       0.00       0.00       6.91      78.94      39.96     118.89        5.67  3548.27   0.939
  sub3                     126.65       0.00       0.00       8.75      78.85      38.11     116.96        2.63  1282.42   0.924
  sub4                     126.65       0.00       0.00       2.01     111.30      11.92     123.23        2.57  1373.52   0.973
  sub5                     126.65       0.00       0.00       1.11     116.49       7.76     124.26        1.41   915.68   0.981
  sub60                    126.65       0.00       0.00       1.91     110.26      13.29     123.55        1.62  1127.30   0.976
  sub61                    126.65       0.00       0.00       2.78     104.00      18.76     122.76        2.25  1569.95   0.969
  sub62                    126.65       0.00       0.00       1.27     115.24       8.86     124.10        3.40  2218.95   0.980
  sub63                    126.65       0.00       0.00       5.13      88.96      31.60     120.57        2.74  1796.72   0.952
  sub64                    126.65       0.00       0.00       2.59     106.45      16.41     122.86        2.95  1848.28   0.970
  sub65                    126.65       0.00       0.00       2.24     108.94      14.22     123.16        3.39  2073.20   0.973
  sub66                    126.65       0.00       0.00       6.38      88.85      30.35     119.20        5.56  2853.29   0.941
  sub67                    126.65       0.00       0.00       1.22     115.29       8.92     124.20        2.31  1684.09   0.981
  sub68                    126.65       0.00       0.00       2.30     107.74      15.44     123.18        3.39  2264.52   0.973
  sub69                    126.65       0.00       0.00       2.09     107.55      16.91     124.46        4.61  2755.74   0.983
  sub7                     126.65       0.00       0.00       1.40     114.02      10.00     124.03        0.42   293.54   0.979
  sub70                    126.65       0.00       0.00       7.00      83.43      36.07     119.49        3.45  1605.92   0.944
  sub71                    126.65       0.00       0.00       1.31     115.20       8.82     124.02        3.24  1993.37   0.979
  sub72                    126.65       0.00       0.00       1.17     116.39       7.70     124.09        1.71   975.85   0.980
  sub8                     126.65       0.00       0.00       1.42     114.01       9.98     124.00        0.79   539.32   0.979
  sub9                     126.65       0.00       0.00       1.42     114.01       9.98     123.99        0.60   403.13   0.979
  
  
  ******************
  Node Depth Summary
  ******************
  
  ---------------------------------------------------------------------------------
                                 Average  Maximum  Maximum  Time of Max    Reported
                                   Depth    Depth      HGL   Occurrence   Max Depth
  Node                 Type       Meters   Meters   Meters  days hr:min      Meters
  ---------------------------------------------------------------------------------
  HS02004478           JUNCTION     0.44     1.60    10.83     0  02:03        1.60
  HS02004479           JUNCTION     0.52     1.71    10.91     0  01:47        1.70
  HS02004480           JUNCTION     0.49     1.68    10.92     0  01:47        1.62
  HS02004770           JUNCTION     0.46     1.42    11.25     0  01:43        1.42
  HS02004777           JUNCTION     0.48     1.48    11.28     0  01:43        1.48
  HS02004785           JUNCTION     0.38     1.49    11.39     0  01:43        1.41
  HS02004788           JUNCTION     0.35     1.42    11.32     0  01:43        1.42
  HS02004792           JUNCTION     0.45     1.60    11.12     0  01:41        1.60
  HS02004799           JUNCTION     0.57     1.76    10.97     0  01:41        1.76
  HS02004802           JUNCTION     0.55     1.82    10.95     0  01:55        1.82
  HS02004807           JUNCTION     0.53     1.92    11.09     0  01:47        1.92
  HS02004817           JUNCTION     0.84     2.44    11.29     0  01:47        2.44
  HS02004824           JUNCTION     0.42     2.01    11.41     0  01:47        2.01
  HS02004830           JUNCTION     0.41     2.03    11.50     0  01:46        2.03
  HS02004837           JUNCTION     0.36     2.04    11.62     0  01:46        1.96
  HS02004842           JUNCTION     0.65     2.22    11.49     0  01:46        2.22
  HS02004848           JUNCTION     0.34     2.07    11.67     0  01:46        1.96
  HS02004852           JUNCTION     0.36     2.12    11.63     0  01:46        2.03
  HS02004856           JUNCTION     0.41     2.07    11.50     0  01:46        2.07
  HS02004862           JUNCTION     0.37     2.00    11.38     0  01:47        2.00
  HS02004870           JUNCTION     0.37     2.10    11.39     0  01:46        2.09
  HS02004876           JUNCTION     0.43     2.26    11.29     0  02:00        2.26
  HS02004881           JUNCTION     0.35     2.04    11.07     0  02:00        2.03
  HS02004901           JUNCTION     0.47     1.42    11.24     0  01:43        1.42
  WS02001211           JUNCTION     0.66     0.84     5.68     0  02:05        0.84
  WS02001212           JUNCTION     0.41     0.60     5.67     0  02:05        0.60
  WS02001213           JUNCTION     0.64     0.90     5.66     0  02:05        0.90
  WS02003059           JUNCTION     0.70     0.97     5.66     0  02:04        0.97
  WS02003060           JUNCTION     0.44     0.72     5.65     0  02:05        0.72
  WS02003066           JUNCTION     0.27     0.47     6.03     0  02:04        0.47
  WS02003067           JUNCTION     0.61     0.91     6.23     0  01:59        0.90
  WS02003069           JUNCTION     0.49     0.81     5.40     0  02:05        0.81
  WS02003072           JUNCTION     0.54     0.84     5.21     0  02:05        0.84
  WS02003073           JUNCTION     0.33     0.54     4.60     0  02:06        0.54
  WS02004138           JUNCTION     0.13     0.14     7.39     0  00:32        0.14
  WS02004139           JUNCTION     0.60     0.77     5.68     0  02:04        0.77
  WS02004401           JUNCTION     0.97     2.66     8.66     0  01:29        2.66
  WS02004402           JUNCTION     0.98     2.74     8.70     0  01:29        2.74
  WS02004403           JUNCTION     0.96     3.03     8.96     0  01:29        3.03
  WS02004404           JUNCTION     1.02     3.78     9.63     0  01:29        3.78
  WS02004405           JUNCTION     1.00     3.59     9.44     0  01:29        3.59
  WS02004406           JUNCTION     0.96     2.00     7.83     0  01:29        1.93
  WS02004407           JUNCTION     0.38     1.08     7.40     0  01:59        1.08
  WS02004409           JUNCTION     0.69     1.50     7.27     0  01:59        1.49
  WS02004410           JUNCTION     0.68     1.39     7.11     0  02:03        1.39
  WS02004411           JUNCTION     0.67     1.28     6.96     0  02:03        1.28
  WS02004412           JUNCTION     0.65     1.15     6.79     0  01:59        1.15
  WS02004413           JUNCTION     0.77     1.17     6.64     0  02:03        1.17
  WS02006109           JUNCTION     1.32     2.64     9.26     0  01:41        2.64
  WS02006110           JUNCTION     1.21     2.48     9.07     0  02:00        2.48
  WS02006111           JUNCTION     0.68     2.02     8.72     0  02:03        2.02
  WS02006112           JUNCTION     1.25     2.68     8.56     0  01:29        2.68
  WS02006113           JUNCTION     0.76     2.00     8.89     0  02:03        1.99
  WS02006115           JUNCTION     0.93     3.26     9.40     0  01:29        3.26
  WS02006116           JUNCTION     0.99     3.35     9.39     0  01:29        3.35
  WS02006228           JUNCTION     1.44     3.03     9.68     0  01:41        3.03
  WS02006229           JUNCTION     1.48     3.23     9.93     0  01:47        3.23
  WS02006230           JUNCTION     1.34     2.65     9.39     0  01:38        2.65
  WS02006231           JUNCTION     1.02     2.24     9.36     0  01:29        2.24
  WS02006232           JUNCTION     1.10     2.18     9.22     0  01:29        2.18
  WS02006234           JUNCTION     0.96     1.96     9.12     0  01:27        1.96
  WS02006235           JUNCTION     0.96     2.00     9.16     0  01:29        2.00
  WS02006238           JUNCTION     0.98     2.15     9.29     0  01:29        2.15
  WS02006239           JUNCTION     0.91     2.03     9.24     0  01:29        2.03
  WS02006240           JUNCTION     0.84     2.10     9.39     0  01:27        2.10
  WS02006242           JUNCTION     0.86     1.55     8.82     0  01:27        1.55
  WS02006243           JUNCTION     0.75     1.48     8.90     0  01:27        1.48
  WS02006245           JUNCTION     0.71     1.56     9.04     0  01:29        1.56
  WS02006247           JUNCTION     0.71     1.47     8.97     0  01:27        1.47
  WS02006248           JUNCTION     0.65     1.10     8.69     0  01:27        1.10
  WS02006249           JUNCTION     0.66     1.09     8.69     0  01:27        1.09
  WS02006251           JUNCTION     0.93     2.20     9.87     0  02:01        2.20
  WS02006252           JUNCTION     0.65     1.50     9.74     0  00:00        1.50
  WS02006253           JUNCTION     1.11     3.30    10.94     0  02:00        3.29
  WS02006256           JUNCTION     1.21     2.35     9.28     0  00:00        2.35
  WS02006280           JUNCTION     0.56     1.76    10.03     0  01:47        1.74
  WS02006284           JUNCTION     0.79     1.95    10.35     0  01:55        1.95
  WS02006287           JUNCTION     0.53     1.75    10.70     0  02:12        1.75
  WSF200               JUNCTION     0.28     0.55     5.78     0  02:05        0.55
  YS02001580           JUNCTION     0.21     1.05     9.59     0  01:41        0.77
  YS02001583           JUNCTION     0.25     1.10     9.59     0  01:41        0.83
  YS02001586           JUNCTION     0.38     1.13     9.30     0  01:41        1.13
  YS02001590           JUNCTION     0.50     1.40     9.26     0  01:41        1.40
  YS02001593           JUNCTION     0.44     1.46     9.32     0  01:41        1.46
  YS02001596           JUNCTION     0.58     1.70     9.12     0  01:41        1.67
  YS02001600           JUNCTION     0.68     1.87     9.00     0  01:41        1.87
  YS02001601           JUNCTION     0.87     2.06     8.90     0  01:40        2.06
  YS02001602           JUNCTION     0.76     1.87     8.77     0  01:41        1.87
  YS02001605           JUNCTION     0.71     1.78     8.68     0  01:41        1.78
  YS02001607           JUNCTION     0.66     1.65     8.49     0  02:38        1.65
  YS02001610           JUNCTION     0.70     1.68     8.48     0  01:47        1.68
  YS02001613           JUNCTION     0.66     1.68     8.52     0  01:55        1.68
  YS02001616           JUNCTION     0.60     1.61     8.52     0  01:56        1.61
  YS02001619           JUNCTION     0.58     1.61     8.54     0  01:52        1.61
  YS02001622           JUNCTION     0.56     1.61     8.51     0  01:52        1.61
  YS02001625           JUNCTION     0.80     1.78     8.38     0  01:41        1.78
  YS02001629           JUNCTION     0.71     1.85     8.40     0  01:49        1.85
  YS02001633           JUNCTION     0.79     2.08     8.53     0  01:41        2.08
  YS02001641           JUNCTION     0.74     2.00     8.44     0  01:52        2.00
  YS02001644           JUNCTION     0.73     1.92     8.35     0  01:51        1.92
  YS02001647           JUNCTION     0.51     1.79     8.40     0  02:00        1.78
  YS02001649           JUNCTION     0.58     2.05     8.44     0  01:59        2.05
  YS02001652           JUNCTION     0.46     2.03     8.62     0  02:00        2.01
  YS02001655           JUNCTION     0.36     1.96     8.81     0  02:01        1.96
  YS02001658           JUNCTION     0.27     1.85     8.99     0  02:01        1.85
  YS02001661           JUNCTION     0.25     1.77     9.17     0  02:01        1.76
  YS02001664           JUNCTION     0.12     1.42     9.35     0  02:01        1.42
  YS02001745           JUNCTION     0.14     1.19     8.71     0  02:01        1.19
  YS02001748           JUNCTION     0.25     1.60     8.68     0  01:52        1.54
  YS02001751           JUNCTION     0.31     1.68     8.56     0  02:01        1.68
  YS02001754           JUNCTION     0.40     1.87     8.48     0  02:01        1.87
  YS02001757           JUNCTION     0.59     2.14     8.40     0  01:59        2.13
  YS02001759           JUNCTION     0.54     2.16     8.52     0  02:01        2.16
  YS02001762           JUNCTION     0.53     2.11     8.51     0  01:59        2.09
  YS02001765           JUNCTION     0.50     2.05     8.50     0  02:00        2.05
  YS02001767           JUNCTION     0.50     1.99     8.48     0  02:03        1.98
  YS02001770           JUNCTION     0.51     1.95     8.44     0  01:52        1.95
  YS02001774           JUNCTION     0.57     2.05     8.47     0  01:52        2.05
  YS02001779           JUNCTION     0.39     1.68     8.37     0  01:49        1.68
  YS02001783           JUNCTION     0.40     1.31     7.45     0  02:00        1.29
  YS02001784           JUNCTION     0.40     1.18     7.25     0  02:01        1.18
  YS02001786           JUNCTION     0.33     0.91     6.94     0  02:03        0.90
  YS02001788           JUNCTION     0.24     0.64     6.62     0  02:00        0.63
  YS02001790           JUNCTION     0.28     0.74     6.39     0  02:00        0.72
  YS02001791           JUNCTION     0.17     0.45     5.92     0  02:00        0.43
  YS02001793           JUNCTION     0.10     0.26     5.09     0  02:03        0.25
  YS02001882           JUNCTION     0.50     1.81     8.52     0  02:03        1.76
  YS02001884           JUNCTION     0.59     1.89     8.50     0  02:03        1.85
  YS02001887           JUNCTION     0.67     1.95     8.48     0  02:01        1.95
  YS02001890           JUNCTION     0.69     1.81     8.32     0  01:48        1.81
  YS02001895           JUNCTION     0.47     1.57     8.32     0  01:55        1.57
  YS02001898           JUNCTION     0.47     1.61     8.34     0  01:55        1.61
  YS02001901           JUNCTION     0.58     1.68     8.29     0  01:58        1.68
  YS02001904           JUNCTION     0.56     1.66     8.29     0  01:47        1.65
  YS02001907           JUNCTION     0.87     1.96     8.25     0  01:47        1.96
  YS02001910           JUNCTION     0.69     2.02     8.53     0  02:03        2.01
  YS02001915           JUNCTION     0.53     2.00     8.72     0  01:58        2.00
  YS02001918           JUNCTION     0.35     1.81     8.88     0  01:48        1.76
  YS02001920           JUNCTION     0.43     2.10     9.11     0  01:48        1.87
  YS02001923           JUNCTION     0.28     2.01     9.27     0  01:48        1.67
  YS02001926           JUNCTION     0.29     1.90     9.35     0  01:48        1.59
  YS02001929           JUNCTION     0.20     1.71     9.40     0  01:48        1.35
  YS02006553           JUNCTION     0.87     2.02     8.30     0  02:00        2.01
  YS02006556           JUNCTION     0.84     2.06     8.37     0  02:00        2.06
  YS02006558           JUNCTION     0.89     2.15     8.42     0  02:01        2.15
  YS02006561           JUNCTION     0.26     0.99     7.65     0  01:47        0.99
  YS02163301           JUNCTION     0.73     1.95     8.47     0  02:01        1.95
  YS02163601           JUNCTION     0.81     2.08     8.48     0  01:52        2.08
  YS02164001           JUNCTION     0.74     2.01     8.47     0  01:52        2.01
  YSB1154              JUNCTION     0.67     2.10    11.16     0  01:41        2.10
  YSB1171              JUNCTION     0.80     1.95    10.85     0  01:41        1.95
  YSB1174              JUNCTION     0.62     1.95    11.06     0  01:41        1.95
  YSB6556              JUNCTION     0.56     1.80    10.97     0  01:55        1.80
  CC-1                 OUTFALL      0.00     0.00     0.00     0  00:00        0.00
  CC-2                 OUTFALL      0.00     0.00     0.00     0  00:00        0.00
  JK-1                 OUTFALL      0.00     0.00     0.00     0  00:00        0.00
  JK-2                 OUTFALL      0.00     0.00     0.00     0  00:00        0.00
  WSC                  OUTFALL      0.33     0.54     1.21     0  02:06        0.54
  CC-storage           STORAGE      0.52     1.55     7.05     0  02:48        1.55
  JK-storage           STORAGE      0.05     2.99     3.79     0  00:00        0.68
  XR-storage           STORAGE      7.78     9.26     7.26     0  08:00        9.26
  
  
  *******************
  Node Inflow Summary
  *******************
  
  -------------------------------------------------------------------------------------------------
                                  Maximum  Maximum                  Lateral       Total        Flow
                                  Lateral    Total  Time of Max      Inflow      Inflow     Balance
                                   Inflow   Inflow   Occurrence      Volume      Volume       Error
  Node                 Type           LPS      LPS  days hr:min    10^6 ltr    10^6 ltr     Percent
  -------------------------------------------------------------------------------------------------
  HS02004478           JUNCTION      0.00  2305.49     0  01:55           0        12.4      -0.002
  HS02004479           JUNCTION      0.00   390.20     0  01:48           0        1.24       0.052
  HS02004480           JUNCTION      0.00  2053.55     0  01:46           0        8.98       0.020
  HS02004770           JUNCTION   3548.27  3824.03     0  02:02        5.67        6.03       0.052
  HS02004777           JUNCTION      0.03   680.24     0  01:43    0.000864        2.38       0.219
  HS02004785           JUNCTION      0.15   689.57     0  01:43     0.00432        2.38       0.019
  HS02004788           JUNCTION   1286.61  1286.61     0  02:02        2.11         4.4       0.005
  HS02004792           JUNCTION   4377.47  5389.35     0  02:02        7.42        11.7       0.004
  HS02004799           JUNCTION    793.24  1935.33     0  02:01        1.18        8.53       0.038
  HS02004802           JUNCTION      0.00  1233.54     0  02:03           0        3.82       0.102
  HS02004807           JUNCTION    992.68  2188.97     0  02:01        1.44        4.55       0.096
  HS02004817           JUNCTION      0.60  1196.88     0  02:13      0.0173        3.16       0.532
  HS02004824           JUNCTION   1373.57  1985.55     0  02:03        2.57        3.88       0.015
  HS02004830           JUNCTION      0.15   637.71     0  02:01     0.00432        1.56       0.072
  HS02004837           JUNCTION    907.84   907.84     0  02:02        1.55        2.07       0.034
  HS02004842           JUNCTION      0.00  1008.66     0  02:02           0        1.47       0.890
  HS02004848           JUNCTION   1282.42  1282.42     0  02:03        2.63        3.34      -0.003
  HS02004852           JUNCTION      0.00   953.73     0  01:46           0        2.69      -0.015
  HS02004856           JUNCTION    403.13   990.19     0  01:46       0.596        3.29       0.052
  HS02004862           JUNCTION    585.47  1529.39     0  02:02         1.1        4.39       0.011
  HS02004870           JUNCTION    539.32  1283.29     0  02:12       0.792        4.66      -0.001
  HS02004876           JUNCTION    533.89  1522.50     0  02:11       0.822        5.48       0.017
  HS02004881           JUNCTION    293.54  1735.61     0  02:00       0.418         5.9       0.011
  HS02004901           JUNCTION    845.15  1110.90     0  02:01        1.26        1.96       0.089
  WS02001211           JUNCTION      7.35   229.45     0  01:35       0.212        5.44       0.611
  WS02001212           JUNCTION      0.00   214.70     0  03:08           0        5.41       0.273
  WS02001213           JUNCTION      0.00   220.14     0  03:07           0        5.39       0.347
  WS02003059           JUNCTION      0.00   226.01     0  03:07           0        5.39       0.596
  WS02003060           JUNCTION     16.53  1613.41     0  02:05       0.476        16.5       0.088
  WS02003066           JUNCTION      0.00  1400.27     0  02:00           0        10.7       0.015
  WS02003067           JUNCTION      0.00  1399.78     0  02:03           0        10.7       0.040
  WS02003069           JUNCTION      0.32  1613.25     0  02:05     0.00922        16.5       0.094
  WS02003072           JUNCTION      0.00  1612.75     0  02:05           0        16.5       0.127
  WS02003073           JUNCTION      1.82  1614.52     0  02:06      0.0524        16.5       0.131
  WS02004138           JUNCTION      0.00   380.00     0  00:00           0        5.25       0.053
  WS02004139           JUNCTION      0.32   190.32     0  00:32     0.00924        5.26       0.508
  WS02004401           JUNCTION      0.00  1400.54     0  02:03           0        10.8       0.099
  WS02004402           JUNCTION      0.00  1400.53     0  02:03           0        10.8       0.098
  WS02004403           JUNCTION      0.00  1401.02     0  02:03           0        10.7       0.096
  WS02004404           JUNCTION      0.16  1400.43     0  02:03     0.00467        10.7       0.078
  WS02004405           JUNCTION      0.04  1401.51     0  02:03      0.0011        10.7       0.113
  WS02004406           JUNCTION      0.00  1400.67     0  02:03           0        10.7       0.201
  WS02004407           JUNCTION      0.00  1400.86     0  02:03           0        10.7       0.013
  WS02004409           JUNCTION      0.00  1399.76     0  02:04           0        10.7       0.029
  WS02004410           JUNCTION      0.00  1399.89     0  02:01           0        10.7       0.046
  WS02004411           JUNCTION      0.00  1400.00     0  02:04           0        10.7       0.056
  WS02004412           JUNCTION      0.00  1399.76     0  02:02           0        10.7       0.074
  WS02004413           JUNCTION      0.00  1399.85     0  02:01           0        10.7       0.134
  WS02006109           JUNCTION      1.23  1289.46     0  01:55      0.0354        10.5       0.079
  WS02006110           JUNCTION      0.00  1125.82     0  02:34           0         9.8       0.080
  WS02006111           JUNCTION      0.00  1125.96     0  02:34           0        9.79       0.007
  WS02006112           JUNCTION    686.55  1523.95     0  02:01        1.03        10.8       0.192
  WS02006113           JUNCTION      0.00  1125.81     0  02:34           0         9.8       0.025
  WS02006115           JUNCTION      0.00  1401.23     0  02:03           0        10.8       0.070
  WS02006116           JUNCTION      0.00  1400.62     0  02:03           0        10.8       0.029
  WS02006228           JUNCTION      0.00  1288.31     0  01:55           0        10.5       0.024
  WS02006229           JUNCTION      0.00  2304.54     0  01:54           0        14.7       0.057
  WS02006230           JUNCTION     10.28  1026.35     0  01:55       0.296        6.52       0.146
  WS02006231           JUNCTION      0.00   466.16     0  03:49           0        4.42      -0.124
  WS02006232           JUNCTION      0.00   461.81     0  03:49           0         4.4       0.153
  WS02006234           JUNCTION      0.00   461.03     0  03:54           0        4.37      -0.157
  WS02006235           JUNCTION      0.00   483.69     0  03:49           0        4.19       0.177
  WS02006238           JUNCTION      0.00   435.15     0  03:58           0        4.09      -0.084
  WS02006239           JUNCTION      0.00   428.54     0  03:58           0        4.03      -0.107
  WS02006240           JUNCTION      0.00   424.60     0  03:55           0        4.01      -0.025
  WS02006242           JUNCTION      0.00   425.66     0  03:55           0           4       0.028
  WS02006243           JUNCTION      0.00   426.36     0  03:55           0        3.39      -0.000
  WS02006245           JUNCTION      0.00   427.12     0  03:55           0         3.4       0.310
  WS02006247           JUNCTION      0.00   428.14     0  03:55           0         3.4       0.016
  WS02006248           JUNCTION      0.00   443.20     0  01:27           0        3.77       0.032
  WS02006249           JUNCTION      0.00  1405.60     0  02:01           0        8.72       0.079
  WS02006251           JUNCTION      0.08  1811.96     0  02:01     0.00222        9.19      -0.019
  WS02006252           JUNCTION      0.00   806.74     0  02:01           0        4.58      -0.030
  WS02006253           JUNCTION     76.31  1812.19     0  02:01       0.101        6.03       0.004
  WS02006256           JUNCTION      0.00   300.00     0  00:00           0       0.879       5.842
  WS02006280           JUNCTION      0.00  2303.76     0  01:54           0        12.4       0.008
  WS02006284           JUNCTION      0.10  2304.03     0  01:54     0.00275        12.4       0.003
  WS02006287           JUNCTION      0.00  2305.05     0  02:00           0        12.4       0.007
  WSF200               JUNCTION      0.00  1400.39     0  02:00           0        10.7       0.005
  YS02001580           JUNCTION      0.00    72.34     0  01:41           0     0.00421       1.556
  YS02001583           JUNCTION      0.00   113.74     0  01:41           0      0.0158      -2.873
  YS02001586           JUNCTION   1605.92  1605.92     0  02:03        3.45        3.46       0.031
  YS02001590           JUNCTION      0.00   318.49     0  01:52           0        1.91      -0.029
  YS02001593           JUNCTION      0.00   318.37     0  01:52           0        1.91       0.008
  YS02001596           JUNCTION      0.00   318.21     0  01:52           0        1.91       0.002
  YS02001600           JUNCTION      0.00   318.10     0  01:52           0        1.91       0.016
  YS02001601           JUNCTION   2755.74  3073.26     0  02:02        4.61        6.51       0.015
  YS02001602           JUNCTION      0.00   495.47     0  01:41           0        2.98       0.017
  YS02001605           JUNCTION      0.00   495.34     0  01:41           0        2.78       0.023
  YS02001607           JUNCTION      0.00   494.98     0  01:41           0        2.78       0.073
  YS02001610           JUNCTION      0.00   954.26     0  02:04           0        3.68       0.068
  YS02001613           JUNCTION      0.00   617.76     0  02:03           0        2.79       0.059
  YS02001616           JUNCTION      0.00   618.07     0  02:04           0        2.79       0.018
  YS02001619           JUNCTION   2853.29  2853.29     0  02:03        5.56        7.44      -0.000
  YS02001622           JUNCTION      0.00  1053.73     0  02:04           0        5.91       0.001
  YS02001625           JUNCTION      0.00  1505.33     0  02:12           0        6.49       0.147
  YS02001629           JUNCTION      0.00  1136.91     0  02:02           0        4.87       0.016
  YS02001633           JUNCTION   2073.40  2073.40     0  02:02         3.4        7.31       0.049
  YS02001641           JUNCTION      0.00  1354.92     0  01:47           0        6.36       0.046
  YS02001644           JUNCTION   1848.32  3428.66     0  02:02        2.95        9.49       0.036
  YS02001647           JUNCTION      0.00  1738.63     0  01:47           0        7.54       0.005
  YS02001649           JUNCTION      0.00  2004.64     0  01:48           0        10.1       0.007
  YS02001652           JUNCTION      0.00  1803.17     0  02:01           0        2.74      -0.035
  YS02001655           JUNCTION      0.15  1802.02     0  02:01     0.00443        2.74      -0.047
  YS02001658           JUNCTION      0.00  1800.26     0  02:01           0        2.74       0.003
  YS02001661           JUNCTION      0.00  1798.31     0  02:01           0        2.74       0.016
  YS02001664           JUNCTION   1796.72  1796.72     0  02:01        2.74        2.74      -0.005
  YS02001745           JUNCTION   1127.30  1127.30     0  02:01        1.62        1.62       0.078
  YS02001748           JUNCTION      0.04  1129.97     0  02:01      0.0013        1.62      -0.103
  YS02001751           JUNCTION      0.01  1131.48     0  02:01    0.000317        1.63       0.025
  YS02001754           JUNCTION      0.26  1133.04     0  02:01     0.00749        1.63      -0.067
  YS02001757           JUNCTION      0.00  3707.13     0  02:01           0          16       0.029
  YS02001759           JUNCTION   1569.99  1569.99     0  02:01        2.25        4.48      -0.004
  YS02001762           JUNCTION      0.00   789.91     0  02:14           0        2.24       0.008
  YS02001765           JUNCTION      0.00   789.70     0  02:14           0        2.24       0.008
  YS02001767           JUNCTION      0.54   789.36     0  02:14      0.0154        2.24       0.006
  YS02001770           JUNCTION   2219.11  2307.90     0  02:02         3.4        3.46      -0.004
  YS02001774           JUNCTION      0.00   851.75     0  02:06           0       0.807       0.150
  YS02001779           JUNCTION      0.01   851.47     0  02:06    0.000144        0.76      -0.054
  YS02001783           JUNCTION      0.00  1206.63     0  02:01           0        5.88       0.005
  YS02001784           JUNCTION      1.06  1207.98     0  02:01      0.0305        5.91       0.009
  YS02001786           JUNCTION      0.06  1208.25     0  02:01     0.00162        5.91       0.012
  YS02001788           JUNCTION      0.07  1209.14     0  02:01     0.00204        5.91       0.005
  YS02001790           JUNCTION      0.15  1215.98     0  02:00     0.00446        5.92      -0.003
  YS02001791           JUNCTION      0.00  1323.96     0  02:00           0        5.92      -0.003
  YS02001793           JUNCTION      0.00  1318.28     0  02:00           0        5.92      -0.050
  YS02001882           JUNCTION      0.00    29.80     0  01:44           0      0.0137       5.093
  YS02001884           JUNCTION      0.00    38.03     0  01:43           0      0.0498       5.350
  YS02001887           JUNCTION   1684.54  1684.57     0  02:01        2.32        2.36       0.188
  YS02001890           JUNCTION      0.00  1684.27     0  02:01           0        2.32       0.223
  YS02001895           JUNCTION      0.00   518.27     0  02:03           0        1.71       0.103
  YS02001898           JUNCTION      0.00   517.81     0  02:03           0        1.71       0.007
  YS02001901           JUNCTION      0.00   517.92     0  02:10           0        1.72       0.197
  YS02001904           JUNCTION      0.00   517.67     0  02:10           0        1.72       0.164
  YS02001907           JUNCTION      0.00  3574.87     0  02:01           0        6.84       0.263
  YS02001910           JUNCTION      0.00  1992.96     0  02:05           0        4.69       0.155
  YS02001915           JUNCTION   1993.39  2972.16     0  02:02        3.24        5.06       0.032
  YS02001918           JUNCTION      0.00   980.22     0  02:02           0        1.83       0.011
  YS02001920           JUNCTION      2.87   980.25     0  02:02      0.0827        1.82       0.057
  YS02001923           JUNCTION      0.04   977.10     0  02:02     0.00109        1.72      -0.010
  YS02001926           JUNCTION      0.05   976.31     0  02:02      0.0015        1.71       0.027
  YS02001929           JUNCTION    975.85   975.85     0  02:02        1.71        1.71      -0.020
  YS02006553           JUNCTION      0.00  1065.82     0  02:01           0        3.38       0.347
  YS02006556           JUNCTION      0.00  1066.54     0  02:02           0        3.39       0.242
  YS02006558           JUNCTION   2265.40  2265.40     0  02:02        3.42        6.35       0.054
  YS02006561           JUNCTION      0.00  1206.24     0  02:01           0        5.88      -0.000
  YS02163301           JUNCTION      0.00  1137.12     0  02:02           0        4.87       0.036
  YS02163601           JUNCTION      0.11  1355.49     0  01:47     0.00317        6.36       0.080
  YS02164001           JUNCTION      0.00  1355.78     0  01:47           0        6.36       0.038
  YSB1154              JUNCTION    915.68   915.68     0  02:02        1.41        1.41       0.101
  YSB1171              JUNCTION      0.00  1629.28     0  02:01           0        2.75       0.231
  YSB1174              JUNCTION    793.18   793.18     0  02:01        1.08        1.08       0.117
  YSB6556              JUNCTION      0.00   725.69     0  02:05           0        1.37       0.085
  CC-1                 OUTFALL       0.00   683.00     0  00:00           0        7.05       0.000
  CC-2                 OUTFALL       0.00   683.00     0  00:00           0        7.05       0.000
  JK-1                 OUTFALL       0.00  1000.00     0  00:00           0        2.87       0.000
  JK-2                 OUTFALL       0.00  1000.00     0  00:00           0        2.87       0.000
  WSC                  OUTFALL       0.00  1614.38     0  02:06           0        16.5       0.000
  CC-storage           STORAGE       0.00  3707.60     0  02:01           0        18.3      -0.300
  JK-storage           STORAGE       0.00  1360.01     0  02:00           0        6.07      -8.055
  XR-storage           STORAGE     200.00   200.00     0  00:00        5.76        6.36       0.001
  
  
  **********************
  Node Surcharge Summary
  **********************
  
  Surcharging occurs when water rises above the top of the highest conduit.
  ---------------------------------------------------------------------
                                               Max. Height   Min. Depth
                                   Hours       Above Crown    Below Rim
  Node                 Type      Surcharged         Meters       Meters
  ---------------------------------------------------------------------
  HS02004478           JUNCTION        0.93          0.684        0.256
  HS02004479           JUNCTION        1.11          0.908        0.142
  HS02004480           JUNCTION        1.16          0.973        0.127
  HS02004770           JUNCTION        1.03          0.720        0.000
  HS02004777           JUNCTION        1.04          0.780        0.000
  HS02004785           JUNCTION        0.97          0.790        0.000
  HS02004788           JUNCTION        0.95          0.720        0.000
  HS02004792           JUNCTION        1.12          0.900        0.000
  HS02004799           JUNCTION        1.31          1.060        0.000
  HS02004802           JUNCTION        1.18          1.108        0.102
  HS02004807           JUNCTION        1.15          1.220        0.000
  HS02004817           JUNCTION        1.74          1.740        0.000
  HS02004824           JUNCTION        0.96          1.310        0.000
  HS02004830           JUNCTION        0.92          1.330        0.000
  HS02004837           JUNCTION        0.87          1.340        0.000
  HS02004842           JUNCTION        1.05          1.520        0.000
  HS02004848           JUNCTION        0.82          1.370        0.000
  HS02004852           JUNCTION        0.86          1.420        0.000
  HS02004856           JUNCTION        0.85          1.300        0.000
  HS02004862           JUNCTION        0.89          1.300        0.000
  HS02004870           JUNCTION        0.92          1.400        0.000
  HS02004876           JUNCTION        1.02          1.560        0.000
  HS02004881           JUNCTION        0.99          1.336        0.114
  HS02004901           JUNCTION        1.03          0.720        0.000
  WS02004401           JUNCTION        1.92          1.660        0.000
  WS02004402           JUNCTION        1.95          1.740        0.000
  WS02004403           JUNCTION        1.96          2.030        0.000
  WS02004404           JUNCTION        2.14          2.780        0.000
  WS02004405           JUNCTION        2.10          2.592        0.208
  WS02004406           JUNCTION        2.06          1.003        1.447
  WS02004407           JUNCTION        0.17          0.084        2.256
  WS02004409           JUNCTION        1.56          0.502        1.858
  WS02004410           JUNCTION        1.54          0.393        2.147
  WS02004411           JUNCTION        1.48          0.280        2.250
  WS02004412           JUNCTION        1.35          0.155        2.155
  WS02004413           JUNCTION        1.71          0.174        2.026
  WS02006109           JUNCTION        2.75          1.820        0.000
  WS02006110           JUNCTION        2.45          1.574        0.276
  WS02006111           JUNCTION        1.66          1.205        0.665
  WS02006112           JUNCTION        2.58          1.680        0.000
  WS02006113           JUNCTION        1.68          1.196        0.734
  WS02006115           JUNCTION        1.83          2.250        0.000
  WS02006116           JUNCTION        1.84          2.290        0.000
  WS02006228           JUNCTION        2.73          2.200        0.000
  WS02006229           JUNCTION        1.56          1.054        0.016
  WS02006230           JUNCTION        2.20          1.570        0.000
  WS02006231           JUNCTION        2.47          1.530        0.000
  WS02006232           JUNCTION        2.77          1.480        0.000
  WS02006234           JUNCTION        2.55          1.240        0.000
  WS02006235           JUNCTION        2.65          1.290        0.000
  WS02006238           JUNCTION        2.70          1.430        0.000
  WS02006239           JUNCTION        2.64          1.290        0.000
  WS02006240           JUNCTION        2.64          1.390        0.000
  WS02006242           JUNCTION        2.76          0.820        0.000
  WS02006243           JUNCTION        2.65          0.770        0.000
  WS02006245           JUNCTION        2.65          0.850        0.000
  WS02006247           JUNCTION        2.68          0.760        0.000
  WS02006248           JUNCTION        2.63          0.380        0.000
  WS02006249           JUNCTION        2.66          0.390        0.000
  WS02006251           JUNCTION        2.49          1.173        0.007
  WS02006252           JUNCTION        2.92          1.100        0.000
  WS02006253           JUNCTION        2.50          2.260        0.220
  WS02006256           JUNCTION        6.57          2.050        0.000
  WS02006280           JUNCTION        1.33          0.707        0.073
  WS02006284           JUNCTION        1.21          0.674        0.126
  WS02006287           JUNCTION        1.06          0.749        0.141
  YS02001580           JUNCTION        1.15          0.450        0.000
  YS02001583           JUNCTION        1.16          0.456        0.044
  YS02001586           JUNCTION        1.31          0.510        0.000
  YS02001590           JUNCTION        1.39          0.750        0.000
  YS02001593           JUNCTION        1.39          0.840        0.000
  YS02001596           JUNCTION        1.50          0.972        0.098
  YS02001600           JUNCTION        1.63          1.190        0.000
  YS02001601           JUNCTION        1.90          1.440        0.000
  YS02001602           JUNCTION        1.81          1.270        0.000
  YS02001605           JUNCTION        1.77          1.180        0.000
  YS02001607           JUNCTION        1.36          0.646        0.034
  YS02001610           JUNCTION        1.38          0.680        0.000
  YS02001613           JUNCTION        1.35          0.679        0.021
  YS02001616           JUNCTION        1.30          0.610        0.000
  YS02001619           JUNCTION        1.28          0.610        0.000
  YS02001622           JUNCTION        1.28          0.611        0.009
  YS02001625           JUNCTION        1.46          0.780        0.000
  YS02001629           JUNCTION        1.19          0.470        0.000
  YS02001633           JUNCTION        1.48          1.060        0.000
  YS02001641           JUNCTION        1.41          1.000        0.100
  YS02001644           JUNCTION        1.37          0.920        0.000
  YS02001647           JUNCTION        1.06          0.793        0.107
  YS02001649           JUNCTION        1.23          1.050        0.000
  YS02001652           JUNCTION        0.92          0.996        0.134
  YS02001655           JUNCTION        0.65          0.961        0.239
  YS02001658           JUNCTION        0.44          0.853        0.447
  YS02001661           JUNCTION        0.22          0.697        0.693
  YS02001664           JUNCTION        0.09          0.425        0.885
  YS02001745           JUNCTION        0.06          0.189        1.161
  YS02001748           JUNCTION        0.31          0.523        0.667
  YS02001751           JUNCTION        0.50          0.682        0.518
  YS02001754           JUNCTION        0.73          0.823        0.327
  YS02001757           JUNCTION        1.26          1.137        0.073
  YS02001759           JUNCTION        1.17          1.158        0.052
  YS02001762           JUNCTION        1.12          1.108        0.042
  YS02001765           JUNCTION        1.05          1.050        0.050
  YS02001767           JUNCTION        0.99          0.993        0.037
  YS02001770           JUNCTION        0.95          0.920        0.000
  YS02001774           JUNCTION        1.10          1.050        0.000
  YS02001779           JUNCTION        0.72          0.680        0.000
  YS02001783           JUNCTION        0.95          0.508        1.092
  YS02001784           JUNCTION        0.92          0.380        1.110
  YS02001786           JUNCTION        0.77          0.114        1.316
  YS02001882           JUNCTION        0.87          0.808        0.022
  YS02001884           JUNCTION        0.88          0.828        0.042
  YS02001887           JUNCTION        0.94          0.896        0.054
  YS02001890           JUNCTION        0.96          0.760        0.000
  YS02001895           JUNCTION        0.86          0.569        0.181
  YS02001898           JUNCTION        0.85          0.576        0.164
  YS02001901           JUNCTION        0.92          0.679        0.191
  YS02001904           JUNCTION        0.91          0.655        0.195
  YS02001907           JUNCTION        1.29          0.950        0.000
  YS02001910           JUNCTION        1.00          1.023        0.077
  YS02001915           JUNCTION        0.87          1.000        0.000
  YS02001918           JUNCTION        0.75          0.810        0.000
  YS02001920           JUNCTION        0.77          1.100        0.040
  YS02001923           JUNCTION        0.34          0.798        0.022
  YS02001926           JUNCTION        0.37          0.900        0.000
  YS02001929           JUNCTION        0.22          0.707        0.073
  YS02006553           JUNCTION        1.33          1.019        0.171
  YS02006556           JUNCTION        1.14          1.023        0.327
  YS02006558           JUNCTION        1.12          1.049        0.351
  YS02006561           JUNCTION        0.71          0.194        0.956
  YS02163301           JUNCTION        1.46          0.955        0.075
  YS02163601           JUNCTION        1.51          1.080        0.000
  YS02164001           JUNCTION        1.42          1.013        0.087
  YSB1154              JUNCTION        1.51          1.400        0.000
  YSB1171              JUNCTION        1.51          1.100        0.000
  YSB1174              JUNCTION        1.37          1.250        0.000
  YSB6556              JUNCTION        1.25          1.100        0.000
  
  
  *********************
  Node Flooding Summary
  *********************
  
  Flooding refers to all water that overflows a node, whether it ponds or not.
  --------------------------------------------------------------------------
                                                             Total   Maximum
                                 Maximum   Time of Max       Flood    Ponded
                        Hours       Rate    Occurrence      Volume     Depth
  Node                 Flooded       LPS   days hr:min    10^6 ltr    Meters
  --------------------------------------------------------------------------
  HS02004770              0.75   3557.37      0  02:02       3.036     0.000
  HS02004777              0.01     53.28      0  01:43       0.000     0.000
  HS02004785              0.01    119.90      0  01:43       0.000     0.000
  HS02004788              0.01    103.74      0  01:43       0.000     0.000
  HS02004792              0.74   4246.86      0  02:02       4.372     0.000
  HS02004799              0.46    630.30      0  02:01       0.447     0.000
  HS02004807              0.36    957.22      0  02:01       0.688     0.000
  HS02004817              0.01      9.16      0  01:47       0.000     0.000
  HS02004824              0.30    789.37      0  02:03       0.482     0.000
  HS02004830              0.01     21.75      0  01:46       0.000     0.000
  HS02004837              0.01    103.59      0  01:46       0.000     0.000
  HS02004842              0.28   1008.54      0  02:02       0.536     0.000
  HS02004848              0.01    256.90      0  01:46       0.000     0.000
  HS02004852              0.01    252.13      0  01:46       0.000     0.000
  HS02004856              0.01     20.85      0  01:46       0.000     0.000
  HS02004862              0.26   1154.97      0  02:02       0.523     0.000
  HS02004870              0.01    272.15      0  01:46       0.000     0.000
  HS02004876              0.01      2.19      0  02:01       0.000     0.000
  HS02004901              0.86   1110.80      0  02:01       1.698     0.000
  WS02004401              0.01     34.05      0  01:29       0.000     0.000
  WS02004402              0.01     19.65      0  01:29       0.000     0.000
  WS02004403              0.01     23.94      0  01:29       0.000     0.000
  WS02004404              0.01     13.35      0  01:29       0.000     0.000
  WS02006109              0.83    450.36      0  02:03       0.677     0.000
  WS02006112              0.09    124.92      0  02:01       0.024     0.000
  WS02006115              0.01     19.12      0  01:29       0.000     0.000
  WS02006116              0.01     13.96      0  01:29       0.000     0.000
  WS02006228              0.01      1.26      0  01:47       0.000     0.000
  WS02006230              1.21    573.46      0  01:55       1.837     0.000
  WS02006231              0.01      3.91      0  01:29       0.000     0.000
  WS02006232              0.37     25.39      0  01:41       0.001     0.000
  WS02006234              1.30     93.89      0  01:50       0.269     0.000
  WS02006235              0.01     29.91      0  01:50       0.000     0.000
  WS02006238              0.01     17.51      0  01:29       0.000     0.000
  WS02006239              0.01      6.42      0  01:29       0.000     0.000
  WS02006240              0.01     47.95      0  01:27       0.000     0.000
  WS02006242              1.51    130.10      0  02:02       0.604     0.000
  WS02006243              0.01    135.66      0  01:27       0.000     0.000
  WS02006245              0.01      1.15      0  01:29       0.000     0.000
  WS02006247              0.01    232.63      0  01:27       0.000     0.000
  WS02006248              1.73    340.73      0  01:37       1.902     0.000
  WS02006249              2.38   1344.74      0  02:01       6.469     0.000
  WS02006252              0.92    806.61      0  02:01       1.419     0.000
  WS02006256              0.82    298.58      0  01:40       0.688     0.000
  YS02001580              0.01     42.67      0  01:41       0.000     0.000
  YS02001586              0.95   1288.21      0  02:03       1.546     0.000
  YS02001590              0.01      9.08      0  01:41       0.000     0.000
  YS02001593              0.01      0.58      0  01:41       0.000     0.000
  YS02001600              0.01      1.60      0  01:41       0.000     0.000
  YS02001601              1.21   2674.91      0  02:02       3.532     0.000
  YS02001602              0.97     61.92      0  01:58       0.201     0.000
  YS02001605              0.01      0.91      0  01:41       0.000     0.000
  YS02001610              0.87    953.97      0  02:04       1.802     0.000
  YS02001616              0.10      1.87      0  02:03       0.000     0.000
  YS02001619              0.28   1183.82      0  02:03       0.619     0.000
  YS02001625              0.80   1505.18      0  02:12       2.566     0.000
  YS02001629              0.36    685.83      0  02:02       0.364     0.000
  YS02001633              0.04     43.78      0  02:02       0.003     0.000
  YS02001644              0.41   3428.51      0  02:01       2.121     0.000
  YS02001649              0.01     20.80      0  02:01       0.000     0.000
  YS02001770              0.17   1457.04      0  02:02       0.458     0.000
  YS02001774              0.01      1.66      0  01:52       0.000     0.000
  YS02001779              0.37    851.33      0  02:06       0.738     0.000
  YS02001890              0.38   1167.96      0  02:01       0.595     0.000
  YS02001907              0.68   3574.59      0  02:01       3.885     0.000
  YS02001915              0.17    979.64      0  02:02       0.341     0.000
  YS02001918              0.01     61.20      0  01:48       0.000     0.000
  YS02001926              0.01     10.79      0  01:48       0.000     0.000
  YS02163601              0.01      0.61      0  02:03       0.000     0.000
  YSB1154                 0.11    189.93      0  02:02       0.042     0.000
  YSB1171                 0.61   1629.13      0  02:01       1.846     0.000
  YSB1174                 0.04     42.78      0  02:01       0.002     0.000
  YSB6556                 0.14     85.86      0  02:05       0.036     0.000
  
  
  **********************
  Storage Volume Summary
  **********************
  
  --------------------------------------------------------------------------------------------------
                         Average     Avg  Evap Exfil       Maximum     Max    Time of Max    Maximum
                          Volume    Pcnt  Pcnt  Pcnt        Volume    Pcnt     Occurrence    Outflow
  Storage Unit           1000 m3    Full  Loss  Loss       1000 m3    Full    days hr:min        LPS
  --------------------------------------------------------------------------------------------------
  CC-storage               1.447      23     0     0         4.306      67       0  02:48    1783.53
  JK-storage               0.003       1     0     0         0.150      52       0  00:00    2300.00
  XR-storage               0.934      65     0     0         1.111      77       0  08:00     380.00
  
  
  ***********************
  Outfall Loading Summary
  ***********************
  
  -----------------------------------------------------------
                         Flow       Avg       Max       Total
                         Freq      Flow      Flow      Volume
  Outfall Node           Pcnt       LPS       LPS    10^6 ltr
  -----------------------------------------------------------
  CC-1                  57.84    683.00    683.00       7.054
  CC-2                  57.84    683.00    683.00       7.054
  JK-1                  17.38    993.91   1000.00       2.866
  JK-2                  17.38    993.91   1000.00       2.866
  WSC                   99.95    778.16   1614.38      16.463
  -----------------------------------------------------------
  System                50.08   4131.98   4980.38      36.304
  
  
  ********************
  Link Flow Summary
  ********************
  
  -----------------------------------------------------------------------------
                                 Maximum  Time of Max   Maximum    Max/    Max/
                                  |Flow|   Occurrence   |Veloc|    Full    Full
  Link                 Type          LPS  days hr:min     m/sec    Flow   Depth
  -----------------------------------------------------------------------------
  1                    CONDUIT   1614.38     0  02:06      3.76    0.56    0.54
  HS02004478WS02006287 CONDUIT   2305.05     0  02:00      2.60    0.65    1.00
  HS02004479HS02004480 CONDUIT    391.51     0  01:48      0.56    0.38    1.00
  HS02004480HS02004478 CONDUIT   2050.72     0  01:46      2.93    8.64    1.00
  HS02004770HS02004777 CONDUIT    680.21     0  01:43      0.97    1.24    1.00
  HS02004777HS02004785 CONDUIT    689.42     0  01:43      1.05    0.85    1.00
  HS02004785HS02004788 CONDUIT    646.82     0  01:44      1.35    4.88    1.00
  HS02004788HS02004792 CONDUIT   1041.29     0  02:01      1.49    0.69    1.00
  HS02004792HS02004799 CONDUIT   1563.73     0  01:45      2.23    0.96    1.00
  HS02004799HS02004480 CONDUIT   1706.97     0  01:45      2.44    2.16    1.00
  HS02004802HS02004478 CONDUIT   1233.87     0  02:10      1.76    1.09    1.00
  HS02004807HS02004802 CONDUIT   1233.54     0  02:03      1.76    2.36    1.00
  HS02004817HS02004807 CONDUIT   1196.89     0  02:06      1.71    0.71    1.00
  HS02004817HS02004824 CONDUIT   1196.28     0  02:13      1.71    0.54    1.00
  HS02004824HS02004830 CONDUIT    637.48     0  02:01      0.91    0.83    1.00
  HS02004830HS02004837 CONDUIT    637.56     0  02:01      0.91    0.64    1.00
  HS02004837HS02004842 CONDUIT    732.45     0  01:46      1.05    0.44    1.00
  HS02004842HS02004848 CONDUIT    732.56     0  01:46      1.13    0.43    1.00
  HS02004848HS02004852 CONDUIT    953.73     0  01:46      1.52    1.08    1.00
  HS02004852HS02004856 CONDUIT    909.32     0  01:46      1.42    1.04    1.00
  HS02004856HS02004862 CONDUIT    970.34     0  01:46      1.63    0.97    1.00
  HS02004862HS02004870 CONDUIT   1092.61     0  02:14      1.66    1.18    1.00
  HS02004870HS02004876 CONDUIT   1283.40     0  02:12      1.83    0.85    1.00
  HS02004876HS02004881 CONDUIT   1522.36     0  02:11      2.17   16.19    1.00
  HS02004881HS02006253 CONDUIT   1735.87     0  02:01      2.77    0.34    1.00
  HS02004901HS02004770 CONDUIT    265.79     0  02:28      0.38    1.00    1.00
  WS02001211WS02001212 CONDUIT    214.70     0  03:08      0.54    0.16    0.72
  WS02001212WS02001213 CONDUIT    220.14     0  03:07      1.04    0.34    0.59
  WS02001213WS02003059 CONDUIT    226.01     0  03:07      0.47    0.37    0.92
  WS02003059WS02003060 CONDUIT    232.41     0  03:06      0.65    0.15    0.84
  WS02003060WS02003069 CONDUIT   1612.93     0  02:05      2.12    0.63    0.64
  WS02003066WSF200     CONDUIT   1400.39     0  02:00      3.34    0.24    0.40
  WS02003067WS02003066 CONDUIT   1400.27     0  02:00      2.09    0.45    0.58
  WS02003069WS02003072 CONDUIT   1612.75     0  02:05      1.94    0.78    0.69
  WS02003072WS02003073 CONDUIT   1612.70     0  02:06      2.11    3.48    0.64
  WS02004138WS02004139 CONDUIT    190.00     0  00:32      2.16    0.04    0.43
  WS02004139WS02001211 CONDUIT    222.10     0  01:35      0.54    0.28    0.63
  WS02004401WS02004402 CONDUIT   1400.53     0  02:03      1.78    1.68    1.00
  WS02004402WS02004403 CONDUIT   1401.02     0  02:03      1.78    2.01    1.00
  WS02004403WS02004404 CONDUIT   1400.27     0  02:03      1.78    1.01    1.00
  WS02004404WS02004405 CONDUIT   1401.47     0  02:03      1.78   13.73    1.00
  WS02004405WS02004406 CONDUIT   1400.67     0  02:03      1.78    2.76    1.00
  WS02004406WS02004407 CONDUIT   1400.86     0  02:03      2.00    0.63    1.00
  WS02004407WS02004409 CONDUIT   1399.76     0  02:04      2.02    0.50    1.00
  WS02004409WS02004410 CONDUIT   1399.89     0  02:01      1.78    1.81    1.00
  WS02004410WS02004411 CONDUIT   1400.00     0  02:04      1.78    1.91    1.00
  WS02004411WS02004412 CONDUIT   1399.76     0  02:02      1.78    1.99    1.00
  WS02004412WS02004413 CONDUIT   1399.85     0  02:01      1.78    0.94    1.00
  WS02004413WS02003067 CONDUIT   1399.78     0  02:03      2.13    0.60    0.78
  WS02006109WS02006110 CONDUIT   1125.82     0  02:34      2.24    2.16    1.00
  WS02006110WS02006113 CONDUIT   1125.81     0  02:34      2.24    1.02    1.00
  WS02006111WS02006112 CONDUIT   1126.07     0  02:34      2.24    0.54    1.00
  WS02006112WS02006115 CONDUIT   1401.23     0  02:03      1.78    0.83    1.00
  WS02006113WS02006111 CONDUIT   1125.96     0  02:34      2.69    1.35    1.00
  WS02006115WS02006116 CONDUIT   1400.62     0  02:03      1.78    1.80    1.00
  WS02006116WS02004401 CONDUIT   1400.54     0  02:03      1.78    1.93    1.00
  WS02006228WS02006109 CONDUIT   1288.23     0  01:55      2.56    5.63    1.00
  WS02006229WS02006228 CONDUIT   1288.31     0  01:55      2.56    4.27    1.00
  WS02006230WS02006229 CONDUIT   1016.07     0  01:55      2.64   22.61    1.00
  WS02006231WS02006230 CONDUIT    472.29     0  03:54      1.38    7.16    1.00
  WS02006232WS02006231 CONDUIT    466.16     0  03:49      1.21    0.98    1.00
  WS02006234WS02006232 CONDUIT    461.81     0  03:49      1.39    0.93    1.00
  WS02006235WS02006234 CONDUIT    461.03     0  03:54      1.21    4.86    1.00
  WS02006238WS02006235 CONDUIT    432.72     0  03:49      1.45    0.97    1.00
  WS02006239WS02006238 CONDUIT    435.15     0  03:58      1.13    1.39    1.00
  WS02006240WS02006239 CONDUIT    428.54     0  03:58      1.25    1.35    1.00
  WS02006242WS02006240 CONDUIT    424.60     0  03:55      1.15    1.69    1.00
  WS02006243WS02006242 CONDUIT    425.66     0  03:55      1.35    0.91    1.00
  WS02006245WS02006243 CONDUIT    426.36     0  03:55      1.38    1.26    1.00
  WS02006247WS02006245 CONDUIT    427.12     0  03:55      1.37    3.39    1.00
  WS02006248WS02006247 CONDUIT    428.14     0  03:55      1.41    0.93    1.00
  WS02006249WS02006248 CONDUIT    443.20     0  01:27      1.38    2.43    1.00
  WS02006251WS02006249 CONDUIT   1405.60     0  02:01      3.65    4.05    1.00
  WS02006252WS02006251 CONDUIT    414.24     0  01:27      4.83    1.52    1.00
  WS02006253WS02006251 CONDUIT   1811.88     0  02:01      4.71    5.43    1.00
  WS02006256WS02006235 CONDUIT    288.93     0  00:00      4.23    3.06    1.00
  WS02006280WS02006229 CONDUIT   2304.54     0  01:54      4.57    0.49    1.00
  WS02006284WS02006280 CONDUIT   2303.76     0  01:54      3.02    0.96    1.00
  WS02006287WS02006284 CONDUIT   2303.94     0  01:54      2.93    1.07    1.00
  WSF200WS02003060     CONDUIT   1403.59     0  02:00      2.47    0.31    0.53
  YS02001580YS02001583 CONDUIT     72.34     0  01:41      0.51    0.28    1.00
  YS02001583YS02001586 CONDUIT    113.74     0  01:41      0.48    0.17    1.00
  YS02001586YS02001590 CONDUIT    318.49     0  01:52      1.24    0.56    1.00
  YS02001590YS02001593 CONDUIT    318.37     0  01:52      1.13    2.00    1.00
  YS02001593YS02001596 CONDUIT    318.21     0  01:52      1.77    0.50    1.00
  YS02001596YS02001600 CONDUIT    318.10     0  01:52      1.29    0.62    1.00
  YS02001600YS02001601 CONDUIT    318.13     0  01:52      1.13    0.55    1.00
  YS02001601YS02001602 CONDUIT    495.47     0  01:41      1.75    1.79    1.00
  YS02001602YS02001605 CONDUIT    495.34     0  01:41      1.75   10.48    1.00
  YS02001605YS02001607 CONDUIT    494.98     0  01:41      1.75    2.71    1.00
  YS02001607YS02001610 CONDUIT    498.05     0  01:40      0.63    0.47    1.00
  YS02001610YS02001613 CONDUIT    618.27     0  02:04      0.79    0.71    1.00
  YS02001613YS02001616 CONDUIT    617.76     0  02:03      0.79    0.53    1.00
  YS02001616YS02001619 CONDUIT    618.07     0  02:04      0.79    1.07    1.00
  YS02001619YS02001622 CONDUIT   1053.73     0  02:04      1.34    1.55    1.00
  YS02001622YS02001625 CONDUIT   1053.55     0  02:12      1.34    0.56    1.00
  YS02001625YS02001629 CONDUIT    927.27     0  01:46      1.18    0.44    1.00
  YS02001629YS02163301 CONDUIT   1136.91     0  02:02      1.45    1.40    1.00
  YS02001633YS02163601 CONDUIT   1355.38     0  01:47      1.73    1.42    1.00
  YS02001641YS02001644 CONDUIT   1354.94     0  01:47      1.73    4.38    1.00
  YS02001644YS02001647 CONDUIT   1738.63     0  01:47      2.22    1.02    1.00
  YS02001647YS02001649 CONDUIT   1751.92     0  01:47      2.29    0.92    1.00
  YS02001649YS02001757 CONDUIT   2004.28     0  01:48      2.55    1.22    1.00
  YS02001652YS02001649 CONDUIT   1804.22     0  02:01      2.30    0.89    1.00
  YS02001655YS02001652 CONDUIT   1803.17     0  02:01      2.30    0.88    1.00
  YS02001658YS02001655 CONDUIT   1801.86     0  02:01      2.29    0.76    1.00
  YS02001661YS02001658 CONDUIT   1800.26     0  02:01      2.29    0.71    1.00
  YS02001664YS02001661 CONDUIT   1798.31     0  02:01      2.29    0.56    1.00
  YS02001745YS02001748 CONDUIT   1129.92     0  02:01      2.10    0.43    1.00
  YS02001748YS02001751 CONDUIT   1131.47     0  02:01      1.63    0.57    1.00
  YS02001751YS02001754 CONDUIT   1132.78     0  02:01      1.44    0.55    1.00
  YS02001754YS02001757 CONDUIT   1134.10     0  02:01      1.44    0.46    1.00
  YS02001757CaochengTiaoxuchi CONDUIT   3707.60     0  02:01      6.44    1.60    1.00
  YS02001759YS02001757 CONDUIT   1554.00     0  01:59      1.98    1.10    1.00
  YS02001762YS02001759 CONDUIT    790.22     0  02:14      1.01    0.91    1.00
  YS02001765YS02001762 CONDUIT    789.91     0  02:14      1.01    0.74    1.00
  YS02001767YS02001765 CONDUIT    789.70     0  02:14      1.01    0.99    1.00
  YS02001770YS02001767 CONDUIT    788.82     0  02:14      1.00    3.12    1.00
  YS02001774YS02001770 CONDUIT    851.75     0  02:06      1.08    0.54    1.00
  YS02001779YS02001774 CONDUIT    851.47     0  02:06      1.08    0.43    1.00
  YS02001783YS02001784 CONDUIT   1206.92     0  02:01      2.40    1.66    1.00
  YS02001784YS02001785 CONDUIT   1208.19     0  02:01      2.40    2.81    1.00
  YS02001786YS02001788 CONDUIT   1209.07     0  02:01      2.55    2.33    0.90
  YS02001788YS02001790 CONDUIT   1215.82     0  02:00      2.76    0.90    0.86
  YS02001790YS02001791 CONDUIT   1323.96     0  02:00      3.45    1.44    0.72
  YS02001791YS02001793 CONDUIT   1318.28     0  02:00      6.49    0.57    0.44
  YS02001793JiankangQianchi CONDUIT   1360.01     0  02:00     24.15    0.11    0.50
  YS02001882YS02001884 CONDUIT     29.80     0  01:44      0.20    0.03    1.00
  YS02001884YS02001887 CONDUIT     38.03     0  01:43      0.15    0.05    1.00
  YS02001887YS02001890 CONDUIT   1684.27     0  02:01      2.14    2.88    1.00
  YS02001890YS02001895 CONDUIT    518.27     0  02:03      0.66    0.24    1.00
  YS02001895YS02001898 CONDUIT    517.81     0  02:03      0.66    0.90    1.00
  YS02001898YS02001901 CONDUIT    517.92     0  02:10      0.66    0.33    1.00
  YS02001901YS02001904 CONDUIT    517.67     0  02:10      0.66    0.80    1.00
  YS02001904YS02001907 CONDUIT    518.37     0  01:55      0.66    0.18    1.00
  YS02001907YS02006553 CONDUIT   1065.81     0  02:01      1.18    1.25    1.00
  YS02001910YS02001907 CONDUIT   1992.85     0  02:01      2.54    1.12    1.00
  YS02001915YS02001910 CONDUIT   1992.96     0  02:05      2.54    0.99    1.00
  YS02001918YS02001915 CONDUIT    980.77     0  02:02      1.25    0.54    1.00
  YS02001920YS02001918 CONDUIT    980.22     0  02:02      1.25    0.95    1.00
  YS02001923YS02001920 CONDUIT    977.38     0  02:02      1.24    0.44    1.00
  YS02001926YS02001923 CONDUIT    977.06     0  02:02      1.24    1.40    1.00
  YS02001929YS02001926 CONDUIT    976.25     0  02:02      1.24    0.46    1.00
  YS02006553YS02006556 CONDUIT   1065.82     0  02:01      1.36    0.91    1.00
  YS02006556YS02006558 CONDUIT   1066.54     0  02:02      1.36    0.84    1.00
  YS02006558YS02006561 CONDUIT   1206.24     0  02:01      4.27    2.67    1.00
  YS02006561YS02001783 CONDUIT   1206.63     0  02:01      2.40    0.62    1.00
  YS02163301YS02001633 CONDUIT   1137.12     0  02:02      1.45    1.07    1.00
  YS02163601YS02164001 CONDUIT   1355.78     0  01:47      1.73    1.20    1.00
  YS02164001YS02001641 CONDUIT   1354.92     0  01:47      1.73    1.85    1.00
  YSB1154YSB6556       CONDUIT    725.69     0  02:05      1.89    1.30    1.00
  YSB1171HS02004479    CONDUIT    390.20     0  01:48      0.78    0.26    1.00
  YSB1174YSB1171       CONDUIT    750.68     0  02:02      1.95    1.15    1.00
  YSB6556YSB1171       CONDUIT    639.84     0  02:06      1.66    0.66    1.00
  CC-R1                PUMP       683.00     0  00:00              1.00
  CC-R2                PUMP       683.00     0  00:00              1.00
  CC-S1                PUMP       200.00     0  00:00              1.00
  CC-S2                PUMP       200.00     0  00:00              1.00
  JK-R1                PUMP      1000.00     0  00:00              1.00
  JK-R2                PUMP      1000.00     0  00:00              1.00
  JK-S                 PUMP       300.00     0  00:00              1.00
  XR-1                 PUMP        95.00     0  00:00              1.00
  XR-2                 PUMP        95.00     0  00:00              1.00
  XR-3                 PUMP        95.00     0  00:00              1.00
  XR-4                 PUMP        95.00     0  00:00              1.00
  
  
  ***************************
  Flow Classification Summary
  ***************************
  
  -------------------------------------------------------------------------------------
                      Adjusted    ---------- Fraction of Time in Flow Class ---------- 
                       /Actual         Up    Down  Sub   Sup   Up    Down  Norm  Inlet 
  Conduit               Length    Dry  Dry   Dry   Crit  Crit  Crit  Crit  Ltd   Ctrl  
  -------------------------------------------------------------------------------------
  1                       1.00   0.00  0.00  0.00  0.00  1.00  0.00  0.00  0.41  0.00
  HS02004478WS02006287    1.00   0.13  0.00  0.00  0.64  0.23  0.00  0.00  0.57  0.00
  HS02004479HS02004480    1.00   0.05  0.00  0.00  0.95  0.00  0.00  0.00  0.10  0.00
  HS02004480HS02004478    1.00   0.12  0.00  0.00  0.60  0.00  0.00  0.28  0.00  0.00
  HS02004770HS02004777    1.00   0.00  0.12  0.00  0.88  0.00  0.00  0.00  0.01  0.00
  HS02004777HS02004785    1.00   0.00  0.00  0.00  1.00  0.00  0.00  0.00  0.10  0.00
  HS02004785HS02004788    1.00   0.00  0.00  0.00  1.00  0.00  0.00  0.00  0.00  0.00
  HS02004788HS02004792    1.00   0.00  0.00  0.00  0.99  0.01  0.00  0.00  0.84  0.00
  HS02004792HS02004799    1.00   0.00  0.00  0.00  0.99  0.01  0.00  0.00  0.78  0.00
  HS02004799HS02004480    1.00   0.00  0.05  0.00  0.87  0.00  0.08  0.00  0.00  0.00
  HS02004802HS02004478    1.00   0.12  0.00  0.00  0.88  0.00  0.00  0.00  0.02  0.00
  HS02004807HS02004802    1.00   0.12  0.00  0.00  0.87  0.00  0.00  0.01  0.00  0.00
  HS02004817HS02004807    1.00   0.00  0.12  0.00  0.88  0.00  0.00  0.00  0.01  0.00
  HS02004817HS02004824    1.00   0.00  0.00  0.00  1.00  0.00  0.00  0.00  0.76  0.00
  HS02004824HS02004830    1.00   0.00  0.00  0.00  1.00  0.00  0.00  0.00  0.01  0.00
  HS02004830HS02004837    1.00   0.00  0.00  0.00  1.00  0.00  0.00  0.00  0.80  0.00
  HS02004837HS02004842    1.00   0.00  0.00  0.00  1.00  0.00  0.00  0.00  0.11  0.00
  HS02004842HS02004848    1.00   0.00  0.12  0.00  0.88  0.00  0.00  0.00  0.52  0.00
  HS02004848HS02004852    1.00   0.12  0.00  0.00  0.88  0.00  0.00  0.00  0.66  0.00
  HS02004852HS02004856    1.00   0.12  0.00  0.00  0.88  0.00  0.00  0.00  0.62  0.00
  HS02004856HS02004862    1.00   0.00  0.13  0.00  0.87  0.00  0.00  0.00  0.68  0.00
  HS02004862HS02004870    1.00   0.00  0.00  0.00  1.00  0.00  0.00  0.00  0.02  0.00
  HS02004870HS02004876    1.00   0.00  0.00  0.00  0.97  0.02  0.00  0.00  0.79  0.00
  HS02004876HS02004881    1.00   0.02  0.00  0.00  0.79  0.20  0.00  0.00  0.00  0.00
  HS02004881HS02006253    1.00   0.00  0.07  0.00  0.54  0.01  0.00  0.38  0.18  0.00
  HS02004901HS02004770    1.00   0.12  0.00  0.00  0.88  0.00  0.00  0.00  0.00  0.00
  WS02001211WS02001212    1.00   0.00  0.03  0.00  0.97  0.00  0.00  0.00  0.00  0.00
  WS02001212WS02001213    1.00   0.03  0.00  0.00  0.57  0.00  0.40  0.00  0.00  0.00
  WS02001213WS02003059    1.00   0.00  0.00  0.00  0.99  0.00  0.00  0.00  0.00  0.00
  WS02003059WS02003060    1.00   0.00  0.00  0.00  1.00  0.00  0.00  0.00  0.03  0.00
  WS02003060WS02003069    1.00   0.00  0.00  0.00  0.97  0.03  0.00  0.00  0.50  0.00
  WS02003066WSF200        1.00   0.07  0.00  0.00  0.00  0.93  0.00  0.00  0.61  0.00
  WS02003067WS02003066    1.00   0.07  0.01  0.00  0.93  0.00  0.00  0.00  0.00  0.00
  WS02003069WS02003072    1.00   0.00  0.00  0.00  1.00  0.00  0.00  0.00  0.58  0.00
  WS02003072WS02003073    1.00   0.00  0.00  0.00  0.00  0.00  0.00  1.00  0.00  0.00
  WS02004138WS02004139    1.00   0.00  0.01  0.00  0.97  0.01  0.00  0.01  0.98  0.00
  WS02004139WS02001211    1.00   0.00  0.00  0.00  0.99  0.00  0.00  0.00  0.00  0.00
  WS02004401WS02004402    1.00   0.02  0.00  0.00  0.97  0.00  0.00  0.00  0.00  0.00
  WS02004402WS02004403    1.00   0.03  0.00  0.00  0.97  0.00  0.00  0.00  0.00  0.00
  WS02004403WS02004404    1.00   0.00  0.03  0.00  0.97  0.00  0.00  0.00  0.00  0.00
  WS02004404WS02004405    1.00   0.00  0.00  0.00  1.00  0.00  0.00  0.00  0.01  0.00
  WS02004405WS02004406    1.00   0.00  0.00  0.00  1.00  0.00  0.00  0.00  0.00  0.00
  WS02004406WS02004407    1.00   0.00  0.05  0.00  0.95  0.00  0.00  0.00  0.00  0.00
  WS02004407WS02004409    1.00   0.05  0.00  0.00  0.94  0.01  0.00  0.00  0.76  0.00
  WS02004409WS02004410    1.00   0.05  0.00  0.00  0.95  0.00  0.00  0.00  0.00  0.00
  WS02004410WS02004411    1.00   0.05  0.00  0.00  0.95  0.00  0.00  0.00  0.00  0.00
  WS02004411WS02004412    1.00   0.05  0.00  0.00  0.95  0.00  0.00  0.00  0.00  0.00
  WS02004412WS02004413    1.00   0.05  0.00  0.00  0.94  0.00  0.00  0.00  0.00  0.00
  WS02004413WS02003067    1.00   0.06  0.01  0.00  0.00  0.00  0.93  0.00  0.00  0.00
  WS02006109WS02006110    1.00   0.00  0.01  0.00  0.99  0.00  0.01  0.00  0.00  0.00
  WS02006110WS02006113    1.00   0.01  0.01  0.00  0.98  0.00  0.00  0.00  0.00  0.00
  WS02006111WS02006112    1.00   0.02  0.00  0.00  0.98  0.00  0.00  0.00  0.72  0.00
  WS02006112WS02006115    1.00   0.02  0.00  0.00  0.97  0.00  0.01  0.00  0.00  0.00
  WS02006113WS02006111    1.00   0.02  0.00  0.00  0.41  0.58  0.00  0.00  0.07  0.00
  WS02006115WS02006116    1.00   0.02  0.00  0.00  0.97  0.00  0.00  0.01  0.00  0.00
  WS02006116WS02004401    1.00   0.02  0.00  0.00  0.98  0.00  0.00  0.00  0.00  0.00
  WS02006228WS02006109    1.00   0.00  0.00  0.00  1.00  0.00  0.00  0.00  0.00  0.00
  WS02006229WS02006228    1.00   0.00  0.00  0.00  0.99  0.00  0.00  0.01  0.00  0.00
  WS02006230WS02006229    1.00   0.00  0.00  0.00  0.99  0.00  0.00  0.01  0.03  0.00
  WS02006231WS02006230    1.00   0.00  0.00  0.00  0.63  0.00  0.37  0.00  0.00  0.00
  WS02006232WS02006231    1.00   0.00  0.00  0.00  0.99  0.00  0.00  0.00  0.00  0.00
  WS02006234WS02006232    1.00   0.00  0.00  0.00  1.00  0.00  0.00  0.00  0.05  0.00
  WS02006235WS02006234    1.00   0.00  0.00  0.00  0.88  0.00  0.12  0.00  0.00  0.00
  WS02006238WS02006235    1.00   0.00  0.00  0.00  1.00  0.00  0.00  0.00  0.01  0.00
  WS02006239WS02006238    1.00   0.00  0.00  0.00  1.00  0.00  0.00  0.00  0.18  0.00
  WS02006240WS02006239    1.00   0.00  0.00  0.00  0.78  0.00  0.00  0.21  0.03  0.00
  WS02006242WS02006240    1.00   0.00  0.00  0.00  0.99  0.00  0.01  0.00  0.00  0.00
  WS02006243WS02006242    1.00   0.00  0.00  0.00  0.99  0.00  0.00  0.01  0.56  0.00
  WS02006245WS02006243    1.00   0.00  0.00  0.00  0.93  0.00  0.00  0.07  0.00  0.00
  WS02006247WS02006245    1.00   0.00  0.00  0.00  0.99  0.00  0.00  0.01  0.00  0.00
  WS02006248WS02006247    1.00   0.00  0.00  0.00  1.00  0.00  0.00  0.00  0.55  0.00
  WS02006249WS02006248    1.00   0.00  0.00  0.00  0.67  0.00  0.33  0.00  0.00  0.00
  WS02006251WS02006249    1.00   0.00  0.00  0.00  1.00  0.00  0.00  0.00  0.56  0.00
  WS02006252WS02006251    1.00   0.00  0.15  0.00  0.52  0.00  0.33  0.00  0.00  0.00
  WS02006253WS02006251    1.00   0.00  0.00  0.00  0.98  0.00  0.02  0.00  0.00  0.00
  WS02006256WS02006235    1.00   0.00  0.00  0.00  0.99  0.01  0.00  0.00  0.01  0.00
  WS02006280WS02006229    1.00   0.13  0.00  0.00  0.36  0.04  0.00  0.47  0.01  0.00
  WS02006284WS02006280    1.00   0.13  0.00  0.00  0.33  0.03  0.00  0.52  0.00  0.00
  WS02006287WS02006284    1.00   0.11  0.02  0.00  0.56  0.31  0.00  0.00  0.62  0.00
  WSF200WS02003060        1.00   0.00  0.07  0.00  0.37  0.56  0.00  0.00  0.57  0.00
  YS02001580YS02001583    1.00   0.21  0.33  0.00  0.45  0.00  0.00  0.00  0.62  0.00
  YS02001583YS02001586    1.00   0.27  0.22  0.00  0.51  0.00  0.00  0.00  0.62  0.00
  YS02001586YS02001590    1.00   0.12  0.00  0.00  0.66  0.02  0.00  0.20  0.33  0.00
  YS02001590YS02001593    1.00   0.12  0.00  0.00  0.34  0.00  0.53  0.00  0.00  0.00
  YS02001593YS02001596    1.00   0.12  0.00  0.00  0.37  0.01  0.00  0.50  0.02  0.00
  YS02001596YS02001600    1.00   0.12  0.00  0.00  0.44  0.02  0.00  0.42  0.03  0.00
  YS02001600YS02001601    1.00   0.12  0.00  0.00  0.88  0.00  0.00  0.00  0.56  0.00
  YS02001601YS02001602    1.00   0.12  0.00  0.00  0.88  0.00  0.00  0.00  0.00  0.00
  YS02001602YS02001605    1.00   0.12  0.00  0.00  0.88  0.00  0.00  0.00  0.00  0.00
  YS02001605YS02001607    1.00   0.12  0.00  0.00  0.88  0.00  0.00  0.00  0.00  0.00
  YS02001607YS02001610    1.00   0.12  0.00  0.00  0.88  0.00  0.00  0.00  0.01  0.00
  YS02001610YS02001613    1.00   0.12  0.00  0.00  0.88  0.00  0.00  0.00  0.00  0.00
  YS02001613YS02001616    1.00   0.12  0.00  0.00  0.88  0.00  0.00  0.00  0.00  0.00
  YS02001616YS02001619    1.00   0.12  0.00  0.00  0.88  0.00  0.00  0.00  0.00  0.00
  YS02001619YS02001622    1.00   0.12  0.00  0.00  0.88  0.00  0.00  0.00  0.26  0.00
  YS02001622YS02001625    1.00   0.12  0.00  0.00  0.88  0.00  0.00  0.00  0.02  0.00
  YS02001625YS02001629    1.00   0.12  0.02  0.00  0.39  0.00  0.47  0.00  0.00  0.00
  YS02001629YS02163301    1.00   0.13  0.00  0.00  0.87  0.00  0.00  0.00  0.00  0.00
  YS02001633YS02163601    1.00   0.00  0.00  0.00  1.00  0.00  0.00  0.00  0.14  0.00
  YS02001641YS02001644    1.00   0.00  0.00  0.00  1.00  0.00  0.00  0.00  0.00  0.00
  YS02001644YS02001647    1.00   0.00  0.13  0.00  0.87  0.00  0.00  0.00  0.00  0.00
  YS02001647YS02001649    1.00   0.00  0.13  0.00  0.63  0.24  0.00  0.00  0.54  0.00
  YS02001649YS02001757    1.00   0.00  0.00  0.00  0.76  0.24  0.00  0.00  0.57  0.00
  YS02001652YS02001649    1.00   0.00  0.00  0.00  0.98  0.02  0.00  0.00  0.70  0.00
  YS02001655YS02001652    1.00   0.00  0.00  0.00  0.42  0.02  0.00  0.56  0.05  0.00
  YS02001658YS02001655    1.00   0.00  0.12  0.00  0.65  0.22  0.00  0.00  0.63  0.00
  YS02001661YS02001658    1.00   0.12  0.00  0.00  0.50  0.38  0.00  0.00  0.67  0.00
  YS02001664YS02001661    1.00   0.12  0.00  0.00  0.64  0.24  0.00  0.00  0.83  0.00
  YS02001745YS02001748    1.00   0.00  0.00  0.00  0.27  0.01  0.00  0.71  0.07  0.00
  YS02001748YS02001751    1.00   0.00  0.00  0.00  0.80  0.20  0.00  0.00  0.74  0.00
  YS02001751YS02001754    1.00   0.00  0.00  0.00  0.38  0.02  0.00  0.60  0.03  0.00
  YS02001754YS02001757    1.00   0.00  0.00  0.00  1.00  0.00  0.00  0.00  0.77  0.00
  YS02001757CaochengTiaoxuchi    1.00   0.00  0.00  0.00  0.45  0.55  0.00  0.00  0.23  0.00
  YS02001759YS02001757    1.00   0.00  0.00  0.00  1.00  0.00  0.00  0.00  0.60  0.00
  YS02001762YS02001759    1.00   0.00  0.00  0.00  1.00  0.00  0.00  0.00  0.04  0.00
  YS02001765YS02001762    1.00   0.00  0.00  0.00  1.00  0.00  0.00  0.00  0.69  0.00
  YS02001767YS02001765    1.00   0.00  0.00  0.00  1.00  0.00  0.00  0.00  0.00  0.00
  YS02001770YS02001767    1.00   0.00  0.00  0.00  1.00  0.00  0.00  0.00  0.00  0.00
  YS02001774YS02001770    1.00   0.00  0.12  0.00  0.79  0.00  0.08  0.00  0.01  0.00
  YS02001779YS02001774    1.00   0.00  0.00  0.00  1.00  0.00  0.00  0.00  0.73  0.00
  YS02001783YS02001784    1.00   0.00  0.14  0.00  0.86  0.00  0.00  0.00  0.54  0.00
  YS02001784YS02001785    1.00   0.00  0.00  0.00  1.00  0.00  0.00  0.00  0.15  0.00
  YS02001786YS02001788    1.00   0.00  0.00  0.00  0.68  0.31  0.00  0.00  0.00  0.00
  YS02001788YS02001790    1.00   0.00  0.00  0.00  0.24  0.76  0.00  0.00  0.76  0.00
  YS02001790YS02001791    1.00   0.00  0.00  0.00  0.01  0.99  0.00  0.00  0.14  0.00
  YS02001791YS02001793    1.00   0.00  0.00  0.00  0.00  1.00  0.00  0.00  0.02  0.00
  YS02001793JiankangQianchi    1.00   0.00  0.00  0.00  0.11  0.89  0.00  0.00  0.57  0.00
  YS02001882YS02001884    1.00   0.13  0.00  0.00  0.87  0.00  0.00  0.00  0.00  0.00
  YS02001884YS02001887    1.00   0.08  0.03  0.00  0.89  0.00  0.00  0.00  0.00  0.00
  YS02001887YS02001890    1.00   0.00  0.00  0.00  0.96  0.00  0.04  0.00  0.00  0.00
  YS02001890YS02001895    1.00   0.00  0.13  0.00  0.87  0.00  0.00  0.00  0.00  0.00
  YS02001895YS02001898    1.00   0.13  0.00  0.00  0.86  0.00  0.01  0.00  0.00  0.00
  YS02001898YS02001901    1.00   0.13  0.00  0.00  0.87  0.00  0.00  0.00  0.00  0.00
  YS02001901YS02001904    1.00   0.13  0.00  0.00  0.87  0.00  0.00  0.00  0.00  0.00
  YS02001904YS02001907    1.00   0.00  0.13  0.00  0.87  0.00  0.00  0.00  0.00  0.00
  YS02001907YS02006553    1.00   0.00  0.02  0.00  0.98  0.00  0.00  0.00  0.00  0.00
  YS02001910YS02001907    1.00   0.00  0.00  0.00  0.97  0.01  0.00  0.03  0.11  0.00
  YS02001915YS02001910    1.00   0.00  0.00  0.00  0.97  0.03  0.00  0.00  0.12  0.00
  YS02001918YS02001915    1.00   0.00  0.00  0.00  0.97  0.02  0.00  0.00  0.68  0.00
  YS02001920YS02001918    1.00   0.00  0.00  0.00  1.00  0.00  0.00  0.00  0.00  0.00
  YS02001923YS02001920    1.00   0.00  0.00  0.00  1.00  0.00  0.00  0.00  0.87  0.00
  YS02001926YS02001923    1.00   0.00  0.09  0.00  0.20  0.00  0.70  0.00  0.00  0.00
  YS02001929YS02001926    1.00   0.00  0.12  0.00  0.88  0.00  0.00  0.00  0.77  0.00
  YS02006553YS02006556    1.00   0.01  0.00  0.00  0.99  0.00  0.00  0.00  0.03  0.00
  YS02006556YS02006558    1.00   0.00  0.00  0.00  1.00  0.00  0.00  0.00  0.00  0.00
  YS02006558YS02006561    1.00   0.14  0.00  0.00  0.19  0.67  0.00  0.00  0.15  0.00
  YS02006561YS02001783    1.00   0.14  0.00  0.00  0.27  0.59  0.00  0.00  0.63  0.00
  YS02163301YS02001633    1.00   0.00  0.13  0.00  0.87  0.00  0.00  0.00  0.00  0.00
  YS02163601YS02164001    1.00   0.00  0.10  0.00  0.90  0.00  0.00  0.00  0.00  0.00
  YS02164001YS02001641    1.00   0.01  0.09  0.00  0.90  0.00  0.00  0.00  0.05  0.00
  YSB1154YSB6556          1.00   0.12  0.00  0.00  0.88  0.00  0.00  0.00  0.01  0.00
  YSB1171HS02004479       1.00   0.06  0.00  0.00  0.92  0.00  0.00  0.02  0.09  0.00
  YSB1174YSB1171          1.00   0.07  0.03  0.00  0.90  0.00  0.00  0.00  0.00  0.00
  YSB6556YSB1171          1.00   0.06  0.06  0.00  0.88  0.00  0.00  0.00  0.00  0.00
  
  
  *************************
  Conduit Surcharge Summary
  *************************
  
  ----------------------------------------------------------------------------
                                                           Hours        Hours 
                         --------- Hours Full --------   Above Full   Capacity
  Conduit                Both Ends  Upstream  Dnstream   Normal Flow   Limited
  ----------------------------------------------------------------------------
  HS02004478WS02006287        0.93      0.93      1.17      0.01         0.01
  HS02004479HS02004480        1.17      1.17      1.20      0.01         0.01
  HS02004480HS02004478        1.08      1.16      1.08      2.03         1.08
  HS02004770HS02004777        1.03      1.03      1.04      0.15         0.10
  HS02004777HS02004785        0.97      0.97      1.04      0.01         0.01
  HS02004785HS02004788        0.95      0.97      0.95      1.73         0.75
  HS02004788HS02004792        0.95      0.95      1.12      0.01         0.01
  HS02004792HS02004799        1.12      1.12      1.31      0.01         0.01
  HS02004799HS02004480        1.16      1.16      1.31      1.47         0.01
  HS02004802HS02004478        1.09      1.09      1.19      0.38         0.01
  HS02004807HS02004802        1.15      1.15      1.18      0.59         0.60
  HS02004817HS02004807        1.15      1.15      1.74      0.01         0.01
  HS02004817HS02004824        0.96      0.96      1.74      0.01         0.01
  HS02004824HS02004830        0.92      0.92      0.96      0.01         0.01
  HS02004830HS02004837        0.87      0.87      0.92      0.01         0.01
  HS02004837HS02004842        0.87      0.87      1.05      0.01         0.01
  HS02004842HS02004848        0.82      0.82      1.05      0.01         0.01
  HS02004848HS02004852        0.82      0.82      0.86      0.02         0.01
  HS02004852HS02004856        0.86      0.86      0.88      0.01         0.01
  HS02004856HS02004862        0.85      0.85      0.89      0.01         0.01
  HS02004862HS02004870        0.89      0.89      0.92      0.32         0.33
  HS02004870HS02004876        0.92      0.92      1.02      0.01         0.01
  HS02004876HS02004881        0.99      1.02      0.99      1.90         0.99
  HS02004881HS02006253        0.99      0.99      2.49      0.01         0.01
  HS02004901HS02004770        1.03      1.03      1.03      0.32         0.01
  WS02003072WS02003073        0.01      0.01      0.01      2.89         0.01
  WS02004401WS02004402        1.92      1.92      1.95      1.76         1.73
  WS02004402WS02004403        1.95      1.95      1.96      1.92         1.90
  WS02004403WS02004404        1.96      1.96      2.14      0.11         0.13
  WS02004404WS02004405        2.10      2.14      2.10      3.53         2.10
  WS02004405WS02004406        2.06      2.10      2.06      2.55         2.06
  WS02004406WS02004407        0.17      0.17      2.06      0.01         0.01
  WS02004407WS02004409        0.17      0.17      1.56      0.01         0.01
  WS02004409WS02004410        1.54      1.56      1.54      1.82         1.54
  WS02004410WS02004411        1.48      1.54      1.48      1.87         1.48
  WS02004411WS02004412        1.35      1.48      1.35      1.91         1.35
  WS02004412WS02004413        1.35      1.35      1.71      0.01         0.01
  WS02004413WS02003067        0.01      0.01      1.71      0.01         0.01
  WS02006109WS02006110        2.45      2.45      2.85      2.46         0.01
  WS02006110WS02006113        1.68      1.68      2.81      0.45         0.01
  WS02006111WS02006112        1.66      1.66      2.92      0.01         0.01
  WS02006112WS02006115        1.83      1.83      2.58      0.01         0.01
  WS02006113WS02006111        1.67      1.68      1.67      1.75         1.63
  WS02006115WS02006116        1.83      1.84      1.84      1.81         1.79
  WS02006116WS02004401        1.91      1.91      1.92      1.88         1.86
  WS02006228WS02006109        2.75      2.85      2.75      3.16         2.75
  WS02006229WS02006228        2.73      2.79      2.73      3.04         2.73
  WS02006230WS02006229        2.93      2.96      2.93      3.69         1.21
  WS02006231WS02006230        2.19      2.20      2.51      3.41         1.64
  WS02006232WS02006231        2.46      2.46      2.77      0.01         0.26
  WS02006234WS02006232        2.57      2.57      2.77      0.01         0.05
  WS02006235WS02006234        2.55      2.55      2.65      3.11         1.59
  WS02006238WS02006235        2.67      2.67      2.77      0.01         0.28
  WS02006239WS02006238        2.69      2.74      2.70      2.41         0.88
  WS02006240WS02006239        2.64      2.66      2.64      2.40         0.82
  WS02006242WS02006240        2.64      2.64      2.80      2.59         1.36
  WS02006243WS02006242        2.67      2.67      2.76      0.01         0.02
  WS02006245WS02006243        2.65      2.66      2.65      1.00         0.79
  WS02006247WS02006245        2.65      2.69      2.65      2.93         1.01
  WS02006248WS02006247        2.65      2.65      2.68      0.01         0.06
  WS02006249WS02006248        2.63      2.63      2.66      1.24         0.01
  WS02006251WS02006249        2.66      2.67      2.66      2.82         2.59
  WS02006252WS02006251        2.90      2.91      2.91      2.40         0.28
  WS02006253WS02006251        2.67      2.67      2.70      1.38         0.02
  WS02006256WS02006235        3.24      3.29      6.43      0.11         0.17
  WS02006280WS02006229        1.35      1.35      1.56      0.01         0.01
  WS02006284WS02006280        1.21      1.21      1.33      0.01         0.01
  WS02006287WS02006284        1.06      1.06      1.22      0.65         0.65
  YS02001580YS02001583        1.15      1.15      1.21      0.01         0.01
  YS02001583YS02001586        1.16      1.16      1.31      0.01         0.01
  YS02001586YS02001590        1.32      1.32      1.39      0.01         0.01
  YS02001590YS02001593        1.39      1.39      1.42      1.40         0.01
  YS02001593YS02001596        1.41      1.41      1.50      0.01         0.01
  YS02001596YS02001600        1.55      1.55      1.63      0.01         0.01
  YS02001600YS02001601        1.68      1.68      1.90      0.01         0.01
  YS02001601YS02001602        1.81      1.81      1.93      1.65         0.01
  YS02001602YS02001605        1.77      1.77      1.81      2.62         0.01
  YS02001605YS02001607        1.73      1.77      1.73      1.87         1.73
  YS02001607YS02001610        1.36      1.36      1.38      0.01         0.01
  YS02001610YS02001613        1.35      1.35      1.38      0.01         0.01
  YS02001613YS02001616        1.30      1.30      1.35      0.01         0.01
  YS02001616YS02001619        1.28      1.28      1.30      0.26         0.20
  YS02001619YS02001622        1.28      1.28      1.28      1.42         1.25
  YS02001622YS02001625        1.28      1.28      1.46      0.01         0.01
  YS02001625YS02001629        1.19      1.19      1.46      0.01         0.01
  YS02001629YS02163301        1.45      1.45      1.46      0.58         0.42
  YS02001633YS02163601        1.48      1.48      1.51      0.69         0.67
  YS02001641YS02001644        1.37      1.41      1.37      1.94         1.36
  YS02001644YS02001647        1.06      1.06      1.37      0.04         0.01
  YS02001647YS02001649        1.06      1.06      1.23      0.01         0.01
  YS02001649YS02001757        1.22      1.23      1.26      0.42         0.37
  YS02001652YS02001649        0.96      0.96      1.23      0.01         0.01
  YS02001655YS02001652        0.65      0.65      0.92      0.01         0.01
  YS02001658YS02001655        0.44      0.44      0.65      0.01         0.01
  YS02001661YS02001658        0.22      0.22      0.44      0.01         0.01
  YS02001664YS02001661        0.09      0.09      0.26      0.01         0.01
  YS02001745YS02001748        0.06      0.06      0.31      0.01         0.01
  YS02001748YS02001751        0.39      0.39      0.50      0.01         0.01
  YS02001751YS02001754        0.50      0.50      0.73      0.01         0.01
  YS02001754YS02001757        0.82      0.82      1.26      0.01         0.01
  YS02001757CaochengTiaoxuchi        0.86      1.26      1.28      0.79         0.32
  YS02001759YS02001757        1.17      1.17      1.26      0.23         0.23
  YS02001762YS02001759        1.12      1.12      1.17      0.01         0.03
  YS02001765YS02001762        1.05      1.05      1.12      0.01         0.01
  YS02001767YS02001765        0.99      0.99      1.05      0.01         0.06
  YS02001770YS02001767        0.99      1.00      0.99      0.89         0.74
  YS02001774YS02001770        0.95      0.95      1.10      0.01         0.01
  YS02001779YS02001774        0.72      0.72      1.10      0.01         0.01
  YS02001783YS02001784        0.92      0.95      0.92      1.19         0.92
  YS02001784YS02001785        0.77      0.92      0.77      1.54         0.77
  YS02001786YS02001788        0.01      0.77      0.01      1.38         0.01
  YS02001790YS02001791        0.01      0.01      0.01      0.90         0.01
  YS02001882YS02001884        0.87      0.87      0.88      0.01         0.01
  YS02001884YS02001887        0.92      0.92      0.94      0.01         0.01
  YS02001887YS02001890        0.96      0.96      0.98      0.31         0.01
  YS02001890YS02001895        0.86      0.86      1.00      0.01         0.01
  YS02001895YS02001898        0.85      0.85      0.86      0.01         0.01
  YS02001898YS02001901        0.86      0.86      0.92      0.01         0.01
  YS02001901YS02001904        0.91      0.91      0.92      0.01         0.01
  YS02001904YS02001907        0.91      0.91      1.33      0.01         0.01
  YS02001907YS02006553        1.55      1.55      1.60      0.06         0.06
  YS02001910YS02001907        1.00      1.00      1.29      0.20         0.20
  YS02001915YS02001910        0.87      0.87      1.00      0.01         0.03
  YS02001918YS02001915        0.75      0.75      0.87      0.01         0.01
  YS02001920YS02001918        0.75      0.75      0.77      0.01         0.01
  YS02001923YS02001920        0.69      0.69      0.77      0.01         0.01
  YS02001926YS02001923        0.34      0.34      0.37      0.16         0.01
  YS02001929YS02001926        0.22      0.22      0.37      0.01         0.01
  YS02006553YS02006556        1.14      1.14      1.33      0.01         0.01
  YS02006556YS02006558        1.22      1.22      1.37      0.01         0.01
  YS02006558YS02006561        0.80      1.12      0.80      1.49         0.80
  YS02006561YS02001783        0.71      0.71      0.95      0.01         0.01
  YS02163301YS02001633        1.46      1.46      1.50      0.06         0.01
  YS02163601YS02164001        1.42      1.42      1.51      0.14         0.01
  YS02164001YS02001641        1.41      1.42      1.41      1.19         1.07
  YSB1154YSB6556              1.25      1.25      1.51      0.17         0.01
  YSB1171HS02004479           1.11      1.11      1.51      0.01         0.01
  YSB1174YSB1171              1.37      1.37      1.69      0.07         0.07
  YSB6556YSB1171              1.25      1.25      1.79      0.01         0.01
  
  
  ***************
  Pumping Summary
  ***************
  
  ---------------------------------------------------------------------------------------------------------
                                                  Min       Avg       Max     Total     Power    % Time Off
                        Percent   Number of      Flow      Flow      Flow    Volume     Usage    Pump Curve
  Pump                 Utilized   Start-Ups       LPS       LPS       LPS  10^6 ltr     Kw-hr    Low   High
  ---------------------------------------------------------------------------------------------------------
  CC-R1                   35.86           4      0.00    683.00    683.00     7.054    121.84    0.0   55.3
  CC-R2                   35.86           4      0.00    683.00    683.00     7.054    121.84    0.0   55.3
  CC-S1                   35.86           4      0.00    200.00    200.00     2.065     16.41    0.0   24.2
  CC-S2                   35.86           4      0.00    200.00    200.00     2.065     16.41    0.0   24.2
  JK-R1                   10.26         484      0.00    993.91   1000.00     2.914      7.07    0.0    0.0
  JK-R2                   10.26         484      0.00    993.91   1000.00     2.914      7.07    0.0    0.0
  JK-S                    10.26         484      0.00    299.81    300.00     0.884     20.21    0.0    0.0
  XR-1                    97.91           2      0.00     95.00     95.00     2.679      9.63    0.0    0.0
  XR-2                    93.94           2      0.00     95.00     95.00     2.570      8.78    0.0    0.0
  XR-3                     0.00           1      0.00     95.00     95.00     0.000      0.00    0.0    0.0
  XR-4                     0.00           1      0.00     95.00     95.00     0.000      0.00    0.0    0.0
  

  Analysis begun on:  Tue Apr  4 15:15:47 2023
  Analysis ended on:  Tue Apr  4 15:16:09 2023
  Total elapsed time: 00:00:22