
  OWA STORM WATER MANAGEMENT MODEL - VERSION v5.1.14 (OWA 2022-07-31)
  --------------------------------------------------------------

  WARNING 04: minimum elevation drop used for Conduit WS02004404WS02004405
  WARNING 03: negative offset ignored for Link YS02001904YS02001907
  
  *********************************************************
  NOTE: The summary statistics displayed in this report are
  based on results found at every computational time step,  
  not just on results from each reporting time step.
  *********************************************************
  
  ****************
  Analysis Options
  ****************
  Flow Units ............... LPS
  Process Models:
    Rainfall/Runoff ........ YES
    RDII ................... NO
    Snowmelt ............... NO
    Groundwater ............ NO
    Flow Routing ........... YES
    Ponding Allowed ........ NO
    Water Quality .......... NO
  Infiltration Method ...... HORTON
  Flow Routing Method ...... DYNWAVE
  Surcharge Method ......... EXTRAN
  Starting Date ............ 08/28/2015 08:00:00
  Ending Date .............. 08/28/2015 16:00:00
  Antecedent Dry Days ...... 8.0
  Report Time Step ......... 00:01:00
  Wet Time Step ............ 00:01:00
  Dry Time Step ............ 00:01:00
  Routing Time Step ........ 30.00 sec
  Variable Time Step ....... YES
  Maximum Trials ........... 8
  Number of Threads ........ 4
  Head Tolerance ........... 0.001500 m
  
  
  **************************        Volume         Depth
  Runoff Quantity Continuity     hectare-m            mm
  **************************     ---------       -------
  Total Precipitation ......         5.170        85.342
  Evaporation Loss .........         0.000         0.000
  Infiltration Loss ........         0.246         4.062
  Surface Runoff ...........         4.864        80.292
  Final Storage ............         0.061         1.007
  Continuity Error (%) .....        -0.022
  
  
  **************************        Volume        Volume
  Flow Routing Continuity        hectare-m      10^6 ltr
  **************************     ---------     ---------
  Dry Weather Inflow .......         0.630         6.296
  Wet Weather Inflow .......         4.864        48.636
  Groundwater Inflow .......         0.000         0.000
  RDII Inflow ..............         0.000         0.000
  External Inflow ..........         0.105         1.045
  External Outflow .........         3.213        32.129
  Flooding Loss ............         2.560        25.602
  Evaporation Loss .........         0.000         0.000
  Exfiltration Loss ........         0.000         0.000
  Initial Stored Volume ....         0.303         3.031
  Final Stored Volume ......         0.188         1.885
  Continuity Error (%) .....        -1.029
  
  
  *************************
  Highest Continuity Errors
  *************************
  Node JK-storage (-11.70%)
  Node YS02001884 (5.21%)
  Node YS02001583 (-4.96%)
  Node WS02006256 (3.48%)
  Node HS02004842 (1.60%)
  
  
  ***************************
  Time-Step Critical Elements
  ***************************
  Link WS02006280WS02006229 (37.60%)
  Link YS02001793JiankangQianchi (23.69%)
  Link WS02006238WS02006235 (10.56%)
  Link WS02006252WS02006251 (6.31%)
  Link WS02004404WS02004405 (4.53%)
  
  
  ********************************
  Highest Flow Instability Indexes
  ********************************
  Link WS02004404WS02004405 (40)
  Link WS02006252WS02006251 (36)
  Link WS02004403WS02004404 (35)
  Link WS02006229WS02006228 (34)
  Link WS02006113WS02006111 (30)
  
  
  *************************
  Routing Time Step Summary
  *************************
  Minimum Time Step           :     0.00 sec
  Average Time Step           :     2.32 sec
  Maximum Time Step           :     6.46 sec
  Percent in Steady State     :     0.00
  Average Iterations per Step :     4.84
  Percent Not Converging      :    36.79
  
  
  ***************************
  Subcatchment Runoff Summary
  ***************************
  
  ------------------------------------------------------------------------------------------------------------------------------
                            Total      Total      Total      Total     Imperv       Perv      Total       Total     Peak  Runoff
                           Precip      Runon       Evap      Infil     Runoff     Runoff     Runoff      Runoff   Runoff   Coeff
  Subcatchment                 mm         mm         mm         mm         mm         mm         mm    10^6 ltr      LPS
  ------------------------------------------------------------------------------------------------------------------------------
  sub0                      76.19       0.00       0.00       1.01      69.61       4.32      73.93        0.06    44.68   0.970
  sub1                      76.19       0.00       0.00       1.72      66.56       6.66      73.22        0.49   306.71   0.961
  sub2                      76.19       0.00       0.00       7.64      47.10      20.55      67.65        0.63   319.97   0.888
  sub3                      76.19       0.00       0.00       8.32      47.06      19.88      66.93        1.51   691.52   0.879
  sub4                      76.19       0.00       0.00       1.92      66.39       6.46      72.86        1.52   760.31   0.956
  sub5                      76.19       0.00       0.00       1.06      69.55       4.27      73.83        0.84   527.79   0.969
  sub7                      76.19       0.00       0.00       1.35      68.09       5.51      73.60        0.25   169.15   0.966
  sub8                      76.19       0.00       0.00       1.36      68.08       5.50      73.58        0.47   312.39   0.966
  sub9                      76.19       0.00       0.00       1.36      68.08       5.49      73.57        0.35   233.71   0.966
  sub10                     76.19       0.00       0.00       1.22      68.81       4.88      73.69        0.81   521.40   0.967
  sub11                     76.19       0.00       0.00       1.20      68.83       4.90      73.73        0.86   574.08   0.968
  sub12                     76.19       0.00       0.00       1.95      65.11       7.96      73.07        0.64   459.82   0.959
  sub14                     76.19       0.00       0.00       1.37      68.08       5.49      73.57        0.70   460.19   0.966
  sub15                     76.19       0.00       0.00       5.34      52.36      17.52      69.88        1.20   720.45   0.917
  sub16                     76.19       0.00       0.00       5.52      50.14      19.62      69.76        0.73   479.45   0.916
  sub17                     76.19       0.00       0.00       5.39      50.89      19.00      69.88        0.60   390.17   0.917
  sub22                     76.19       0.00       0.00       8.10      42.65      24.67      67.32        4.25  2412.10   0.884
  sub23                     76.19       0.00       0.00       6.60      47.14      21.59      68.73        3.28  1990.30   0.902
  sub60                     92.91       0.00       0.00       1.87      80.56       9.28      89.84        1.18   788.83   0.967
  sub61                     92.91       0.00       0.00       2.72      75.99      13.08      89.07        1.63  1097.28   0.959
  sub62                     92.91       0.00       0.00       1.25      84.19       6.19      90.38        2.48  1561.16   0.973
  sub63                     92.91       0.00       0.00       5.01      65.00      21.93      86.93        1.97  1258.43   0.936
  sub64                     92.91       0.00       0.00       2.53      77.77      11.40      89.17        2.14  1287.79   0.960
  sub65                     92.91       0.00       0.00       2.19      79.58       9.89      89.47        2.46  1440.00   0.963
  sub66                     92.91       0.00       0.00       6.22      64.89      20.72      85.61        3.99  1946.06   0.921
  sub67                     92.91       0.00       0.00       1.20      84.24       6.24      90.47        1.68  1185.65   0.974
  sub68                     92.91       0.00       0.00       2.25      78.72      10.76      89.48        2.46  1597.67   0.963
  sub69                     92.91       0.00       0.00       2.03      78.86      11.91      90.78        3.36  1912.69   0.977
  sub70                     92.91       0.00       0.00       6.78      61.16      24.81      85.97        2.48  1092.32   0.925
  sub71                     92.91       0.00       0.00       1.28      84.15       6.15      90.30        2.36  1388.55   0.972
  sub72                     92.91       0.00       0.00       1.14      85.00       5.36      90.37        1.24   678.94   0.973
  
  
  ******************
  Node Depth Summary
  ******************
  
  ---------------------------------------------------------------------------------
                                 Average  Maximum  Maximum  Time of Max    Reported
                                   Depth    Depth      HGL   Occurrence   Max Depth
  Node                 Type       Meters   Meters   Meters  days hr:min      Meters
  ---------------------------------------------------------------------------------
  HS02004478           JUNCTION     0.34     1.63    10.86     0  01:55        1.63
  HS02004479           JUNCTION     0.42     1.82    11.03     0  01:55        1.82
  HS02004480           JUNCTION     0.39     1.81    11.05     0  01:55        1.81
  HS02004770           JUNCTION     0.37     1.42    11.25     0  01:51        1.42
  HS02004777           JUNCTION     0.39     1.48    11.28     0  01:52        1.46
  HS02004785           JUNCTION     0.29     1.49    11.39     0  01:52        1.42
  HS02004788           JUNCTION     0.26     1.42    11.32     0  01:52        1.42
  HS02004792           JUNCTION     0.34     1.60    11.12     0  01:52        1.60
  HS02004799           JUNCTION     0.46     1.76    10.97     0  01:52        1.76
  HS02004802           JUNCTION     0.44     1.84    10.97     0  01:55        1.84
  HS02004807           JUNCTION     0.42     1.92    11.09     0  01:55        1.92
  HS02004817           JUNCTION     0.72     2.44    11.29     0  01:55        2.44
  HS02004824           JUNCTION     0.30     2.01    11.41     0  01:55        2.01
  HS02004830           JUNCTION     0.29     2.03    11.50     0  01:55        2.03
  HS02004837           JUNCTION     0.25     2.04    11.62     0  01:55        2.04
  HS02004842           JUNCTION     0.54     2.22    11.49     0  01:55        2.22
  HS02004848           JUNCTION     0.23     2.07    11.67     0  01:55        2.07
  HS02004852           JUNCTION     0.24     2.12    11.63     0  01:54        2.12
  HS02004856           JUNCTION     0.30     2.07    11.50     0  01:54        2.07
  HS02004862           JUNCTION     0.26     2.00    11.38     0  01:54        2.00
  HS02004870           JUNCTION     0.25     2.10    11.39     0  01:54        2.10
  HS02004876           JUNCTION     0.31     2.26    11.29     0  01:54        2.11
  HS02004881           JUNCTION     0.24     1.88    10.91     0  01:54        1.86
  HS02004901           JUNCTION     0.38     1.42    11.24     0  01:51        1.42
  WS02001211           JUNCTION     0.65     0.82     5.66     0  02:05        0.82
  WS02001212           JUNCTION     0.39     0.58     5.65     0  02:05        0.58
  WS02001213           JUNCTION     0.62     0.88     5.64     0  02:05        0.88
  WS02003059           JUNCTION     0.68     0.95     5.63     0  02:05        0.95
  WS02003060           JUNCTION     0.41     0.70     5.63     0  02:04        0.70
  WS02003066           JUNCTION     0.25     0.46     6.02     0  02:02        0.46
  WS02003067           JUNCTION     0.57     0.89     6.21     0  02:00        0.89
  WS02003069           JUNCTION     0.46     0.79     5.37     0  02:05        0.79
  WS02003072           JUNCTION     0.51     0.82     5.19     0  02:06        0.82
  WS02003073           JUNCTION     0.31     0.52     4.59     0  02:06        0.52
  WS02004138           JUNCTION     0.13     0.14     7.39     0  00:32        0.14
  WS02004139           JUNCTION     0.58     0.75     5.66     0  02:05        0.75
  WS02004401           JUNCTION     0.88     1.97     7.97     0  02:01        1.96
  WS02004402           JUNCTION     0.88     1.90     7.86     0  02:01        1.90
  WS02004403           JUNCTION     0.88     1.82     7.75     0  02:01        1.81
  WS02004404           JUNCTION     0.94     1.83     7.68     0  02:01        1.82
  WS02004405           JUNCTION     0.92     1.78     7.63     0  02:01        1.77
  WS02004406           JUNCTION     0.90     1.66     7.49     0  02:01        1.64
  WS02004407           JUNCTION     0.32     1.00     7.31     0  02:01        0.99
  WS02004409           JUNCTION     0.62     1.43     7.20     0  02:01        1.42
  WS02004410           JUNCTION     0.61     1.33     7.05     0  02:01        1.32
  WS02004411           JUNCTION     0.61     1.23     6.91     0  02:01        1.22
  WS02004412           JUNCTION     0.60     1.12     6.76     0  02:01        1.12
  WS02004413           JUNCTION     0.72     1.15     6.62     0  02:01        1.15
  WS02006109           JUNCTION     1.18     2.64     9.26     0  01:52        2.64
  WS02006110           JUNCTION     1.08     2.43     9.01     0  02:00        2.42
  WS02006111           JUNCTION     0.57     1.84     8.55     0  02:01        1.84
  WS02006112           JUNCTION     1.13     2.50     8.38     0  02:01        2.50
  WS02006113           JUNCTION     0.64     1.89     8.78     0  02:01        1.89
  WS02006115           JUNCTION     0.82     2.08     8.22     0  02:01        2.07
  WS02006116           JUNCTION     0.88     2.06     8.10     0  02:01        2.06
  WS02006228           JUNCTION     1.27     3.03     9.68     0  01:52        3.02
  WS02006229           JUNCTION     1.29     3.25     9.94     0  01:52        3.24
  WS02006230           JUNCTION     1.19     2.65     9.39     0  01:35        2.65
  WS02006231           JUNCTION     0.89     2.24     9.36     0  01:35        2.24
  WS02006232           JUNCTION     0.97     2.18     9.22     0  01:49        2.18
  WS02006234           JUNCTION     0.85     1.96     9.12     0  01:42        1.96
  WS02006235           JUNCTION     0.85     2.00     9.16     0  01:43        2.00
  WS02006238           JUNCTION     0.87     2.15     9.29     0  02:12        2.15
  WS02006239           JUNCTION     0.80     2.03     9.24     0  01:55        2.03
  WS02006240           JUNCTION     0.75     2.10     9.39     0  02:57        2.10
  WS02006242           JUNCTION     0.77     1.55     8.82     0  01:35        1.55
  WS02006243           JUNCTION     0.67     1.48     8.90     0  01:35        1.48
  WS02006245           JUNCTION     0.64     1.56     9.04     0  02:57        1.56
  WS02006247           JUNCTION     0.64     1.47     8.97     0  02:57        1.47
  WS02006248           JUNCTION     0.58     1.10     8.69     0  01:35        1.10
  WS02006249           JUNCTION     0.60     1.09     8.69     0  01:35        1.09
  WS02006251           JUNCTION     0.79     2.21     9.88     0  01:55        2.16
  WS02006252           JUNCTION     0.56     1.50     9.74     0  00:00        1.50
  WS02006253           JUNCTION     0.92     3.14    10.79     0  02:00        3.14
  WS02006256           JUNCTION     1.10     2.35     9.28     0  00:00        2.35
  WS02006280           JUNCTION     0.43     1.82    10.09     0  02:12        1.82
  WS02006284           JUNCTION     0.67     2.04    10.43     0  01:55        2.04
  WS02006287           JUNCTION     0.42     1.80    10.76     0  01:55        1.80
  WSF200               JUNCTION     0.25     0.53     5.76     0  02:02        0.53
  YS02001580           JUNCTION     0.18     1.05     9.59     0  01:48        0.78
  YS02001583           JUNCTION     0.21     1.14     9.64     0  01:48        0.82
  YS02001586           JUNCTION     0.33     1.13     9.30     0  01:48        1.13
  YS02001590           JUNCTION     0.44     1.40     9.26     0  01:48        1.40
  YS02001593           JUNCTION     0.37     1.33     9.19     0  01:48        1.29
  YS02001596           JUNCTION     0.51     1.76     9.18     0  02:12        1.76
  YS02001600           JUNCTION     0.60     1.87     9.00     0  01:48        1.87
  YS02001601           JUNCTION     0.79     2.06     8.90     0  01:47        2.06
  YS02001602           JUNCTION     0.68     1.87     8.77     0  01:47        1.87
  YS02001605           JUNCTION     0.63     1.78     8.68     0  02:27        1.78
  YS02001607           JUNCTION     0.59     1.68     8.53     0  01:55        1.68
  YS02001610           JUNCTION     0.63     1.68     8.48     0  01:52        1.68
  YS02001613           JUNCTION     0.59     1.67     8.51     0  02:07        1.67
  YS02001616           JUNCTION     0.52     1.61     8.52     0  01:55        1.61
  YS02001619           JUNCTION     0.50     1.61     8.54     0  01:55        1.61
  YS02001622           JUNCTION     0.49     1.59     8.49     0  02:12        1.58
  YS02001625           JUNCTION     0.73     1.78     8.38     0  01:52        1.78
  YS02001629           JUNCTION     0.63     1.85     8.40     0  01:53        1.85
  YS02001633           JUNCTION     0.70     2.08     8.53     0  01:55        2.08
  YS02001641           JUNCTION     0.65     2.10     8.54     0  01:55        2.10
  YS02001644           JUNCTION     0.64     1.92     8.35     0  01:55        1.92
  YS02001647           JUNCTION     0.42     1.90     8.51     0  01:55        1.90
  YS02001649           JUNCTION     0.47     2.05     8.44     0  01:55        2.05
  YS02001652           JUNCTION     0.35     2.02     8.61     0  01:55        2.02
  YS02001655           JUNCTION     0.26     1.71     8.56     0  02:00        1.71
  YS02001658           JUNCTION     0.19     1.78     8.92     0  01:55        1.48
  YS02001661           JUNCTION     0.20     1.33     8.73     0  01:56        1.31
  YS02001664           JUNCTION     0.10     0.83     8.76     0  02:01        0.83
  YS02001745           JUNCTION     0.10     0.94     8.45     0  02:01        0.93
  YS02001748           JUNCTION     0.17     1.76     8.84     0  01:55        1.34
  YS02001751           JUNCTION     0.21     1.72     8.60     0  01:55        1.51
  YS02001754           JUNCTION     0.29     1.82     8.43     0  01:55        1.74
  YS02001757           JUNCTION     0.47     2.21     8.47     0  01:55        2.21
  YS02001759           JUNCTION     0.41     2.21     8.57     0  01:55        2.21
  YS02001762           JUNCTION     0.40     2.15     8.55     0  01:55        2.15
  YS02001765           JUNCTION     0.38     2.10     8.55     0  01:55        2.10
  YS02001767           JUNCTION     0.38     2.03     8.52     0  01:55        2.03
  YS02001770           JUNCTION     0.39     1.95     8.44     0  01:55        1.95
  YS02001774           JUNCTION     0.45     2.05     8.47     0  01:55        2.05
  YS02001779           JUNCTION     0.28     1.68     8.37     0  01:53        1.68
  YS02001783           JUNCTION     0.36     1.37     7.51     0  01:52        1.28
  YS02001784           JUNCTION     0.36     1.19     7.26     0  01:52        1.12
  YS02001786           JUNCTION     0.30     0.93     6.96     0  01:52        0.88
  YS02001788           JUNCTION     0.22     0.63     6.60     0  02:01        0.62
  YS02001790           JUNCTION     0.25     0.73     6.37     0  02:01        0.72
  YS02001791           JUNCTION     0.16     0.44     5.91     0  02:01        0.43
  YS02001793           JUNCTION     0.09     0.26     5.09     0  01:57        0.25
  YS02001882           JUNCTION     0.45     1.77     8.49     0  01:55        1.77
  YS02001884           JUNCTION     0.53     1.87     8.49     0  01:55        1.87
  YS02001887           JUNCTION     0.61     2.00     8.54     0  01:55        2.00
  YS02001890           JUNCTION     0.64     1.81     8.32     0  01:52        1.81
  YS02001895           JUNCTION     0.42     1.63     8.38     0  01:55        1.63
  YS02001898           JUNCTION     0.42     1.60     8.33     0  01:55        1.60
  YS02001901           JUNCTION     0.53     1.72     8.33     0  01:55        1.72
  YS02001904           JUNCTION     0.51     1.70     8.33     0  02:12        1.70
  YS02001907           JUNCTION     0.82     1.96     8.25     0  01:52        1.96
  YS02001910           JUNCTION     0.63     2.01     8.52     0  02:02        2.01
  YS02001915           JUNCTION     0.46     2.00     8.72     0  02:00        2.00
  YS02001918           JUNCTION     0.29     1.81     8.88     0  01:53        1.72
  YS02001920           JUNCTION     0.37     2.13     9.14     0  01:53        1.79
  YS02001923           JUNCTION     0.23     2.03     9.29     0  01:53        1.57
  YS02001926           JUNCTION     0.25     1.90     9.35     0  01:53        1.40
  YS02001929           JUNCTION     0.16     1.78     9.47     0  01:53        1.19
  YS02006553           JUNCTION     0.82     2.02     8.31     0  01:55        2.02
  YS02006556           JUNCTION     0.79     2.10     8.41     0  01:55        2.10
  YS02006558           JUNCTION     0.83     2.19     8.45     0  01:55        2.19
  YS02006561           JUNCTION     0.23     1.10     7.76     0  01:52        0.91
  YS02163301           JUNCTION     0.65     1.98     8.50     0  01:55        1.98
  YS02163601           JUNCTION     0.72     2.08     8.48     0  01:55        2.08
  YS02164001           JUNCTION     0.65     2.10     8.56     0  01:55        2.10
  YSB1154              JUNCTION     0.56     2.10    11.16     0  01:55        2.10
  YSB1171              JUNCTION     0.69     1.95    10.85     0  01:52        1.95
  YSB1174              JUNCTION     0.51     1.95    11.06     0  01:55        1.95
  YSB6556              JUNCTION     0.45     1.80    10.97     0  01:52        1.80
  CC-1                 OUTFALL      0.00     0.00     0.00     0  00:00        0.00
  CC-2                 OUTFALL      0.00     0.00     0.00     0  00:00        0.00
  JK-1                 OUTFALL      0.00     0.00     0.00     0  00:00        0.00
  JK-2                 OUTFALL      0.00     0.00     0.00     0  00:00        0.00
  WSC                  OUTFALL      0.31     0.52     1.19     0  02:06        0.52
  CC-storage           STORAGE      0.38     1.25     6.75     0  02:44        1.25
  JK-storage           STORAGE      0.05     2.99     3.79     0  00:00        0.68
  XR-storage           STORAGE      7.79     9.26     7.26     0  08:00        9.26
  
  
  *******************
  Node Inflow Summary
  *******************
  
  -------------------------------------------------------------------------------------------------
                                  Maximum  Maximum                  Lateral       Total        Flow
                                  Lateral    Total  Time of Max      Inflow      Inflow     Balance
                                   Inflow   Inflow   Occurrence      Volume      Volume       Error
  Node                 Type           LPS      LPS  days hr:min    10^6 ltr    10^6 ltr     Percent
  -------------------------------------------------------------------------------------------------
  HS02004478           JUNCTION      0.00  2304.68     0  01:59           0        9.54      -0.007
  HS02004479           JUNCTION      0.00   420.76     0  01:55           0       0.927       0.076
  HS02004480           JUNCTION      0.00  2097.72     0  01:53           0        6.99       0.035
  HS02004770           JUNCTION   1990.30  1990.30     0  02:02        3.28        3.52       0.087
  HS02004777           JUNCTION      0.03   735.88     0  01:52    0.000864        1.97       0.263
  HS02004785           JUNCTION      0.15   741.96     0  01:52     0.00432        1.97       0.024
  HS02004788           JUNCTION    722.12   937.16     0  01:52        1.25        3.22      -0.003
  HS02004792           JUNCTION   2412.38  3288.00     0  02:02        4.26        7.48       0.005
  HS02004799           JUNCTION    460.19  1736.93     0  01:53         0.7        6.41       0.043
  HS02004802           JUNCTION      0.00  1232.86     0  02:08           0        2.75       0.144
  HS02004807           JUNCTION    574.08  1770.14     0  02:02       0.857        3.02       0.140
  HS02004817           JUNCTION      0.60  1196.86     0  02:04      0.0173        2.22       0.761
  HS02004824           JUNCTION    760.36  1338.70     0  02:03        1.52        2.44       0.019
  HS02004830           JUNCTION      0.15   628.65     0  01:53     0.00432        1.11       0.111
  HS02004837           JUNCTION    527.75   818.00     0  01:53       0.996        1.44       0.054
  HS02004842           JUNCTION      0.00   842.52     0  01:54           0       0.812       1.628
  HS02004848           JUNCTION    691.52  1078.58     0  01:54        1.51        2.08      -0.007
  HS02004852           JUNCTION      0.00  1032.27     0  01:54           0        1.85      -0.012
  HS02004856           JUNCTION    233.71  1075.28     0  01:54       0.354         2.2       0.026
  HS02004862           JUNCTION    320.17  1203.15     0  01:54       0.636        2.84      -0.015
  HS02004870           JUNCTION    312.39  1249.11     0  02:05        0.47        3.28      -0.006
  HS02004876           JUNCTION    306.71  1512.97     0  02:05       0.487        3.76       0.014
  HS02004881           JUNCTION    169.15  1666.52     0  02:01       0.248        4.01       0.019
  HS02004901           JUNCTION    479.45   741.71     0  02:02        0.73        1.14       0.154
  WS02001211           JUNCTION      7.35   205.24     0  01:46       0.212        5.44       0.611
  WS02001212           JUNCTION      0.00   207.23     0  02:49           0        5.41       0.273
  WS02001213           JUNCTION      0.00   210.60     0  02:49           0        5.39       0.347
  WS02003059           JUNCTION      0.00   214.27     0  02:48           0        5.38       0.596
  WS02003060           JUNCTION     16.53  1536.32     0  02:04       0.476        14.8       0.098
  WS02003066           JUNCTION      0.00  1337.78     0  02:02           0        9.02       0.017
  WS02003067           JUNCTION      0.00  1337.22     0  02:02           0        9.02       0.048
  WS02003069           JUNCTION      0.32  1536.60     0  02:05     0.00922        14.8       0.104
  WS02003072           JUNCTION      0.00  1536.53     0  02:05           0        14.8       0.141
  WS02003073           JUNCTION      1.82  1538.34     0  02:06      0.0524        14.8       0.145
  WS02004138           JUNCTION      0.00   380.00     0  00:00           0        5.25       0.053
  WS02004139           JUNCTION      0.32   190.32     0  00:32     0.00924        5.26       0.508
  WS02004401           JUNCTION      0.00  1337.99     0  02:01           0        9.13       0.117
  WS02004402           JUNCTION      0.00  1337.85     0  02:01           0        9.12       0.120
  WS02004403           JUNCTION      0.00  1338.50     0  02:01           0        9.11       0.114
  WS02004404           JUNCTION      0.16  1338.06     0  02:01     0.00467         9.1       0.102
  WS02004405           JUNCTION      0.04  1338.21     0  02:01      0.0011        9.09       0.136
  WS02004406           JUNCTION      0.00  1338.41     0  02:01           0        9.08       0.239
  WS02004407           JUNCTION      0.00  1338.27     0  02:01           0        9.06       0.015
  WS02004409           JUNCTION      0.00  1337.29     0  02:02           0        9.06       0.034
  WS02004410           JUNCTION      0.00  1337.31     0  02:02           0        9.05       0.055
  WS02004411           JUNCTION      0.00  1337.35     0  02:02           0        9.05       0.067
  WS02004412           JUNCTION      0.00  1337.33     0  02:02           0        9.04       0.087
  WS02004413           JUNCTION      0.00  1337.21     0  02:02           0        9.03       0.159
  WS02006109           JUNCTION      1.23  1289.78     0  01:59      0.0354        8.93       0.115
  WS02006110           JUNCTION      0.00  1125.22     0  02:24           0        8.57       0.090
  WS02006111           JUNCTION      0.00  1125.08     0  02:24           0        8.56       0.013
  WS02006112           JUNCTION    390.17  1337.62     0  02:01         0.6        9.16       0.222
  WS02006113           JUNCTION      0.00  1125.10     0  02:24           0        8.56       0.025
  WS02006115           JUNCTION      0.00  1338.03     0  02:01           0        9.14       0.086
  WS02006116           JUNCTION      0.00  1337.98     0  02:01           0        9.13       0.018
  WS02006228           JUNCTION      0.00  1288.73     0  01:59           0         8.9       0.050
  WS02006229           JUNCTION      0.00  2305.72     0  01:59           0        11.7       0.074
  WS02006230           JUNCTION     10.28  1026.60     0  01:59       0.296        4.94       0.181
  WS02006231           JUNCTION      0.00   463.64     0  03:40           0         3.5      -0.118
  WS02006232           JUNCTION      0.00   459.38     0  03:40           0        3.48       0.170
  WS02006234           JUNCTION      0.00   456.54     0  03:40           0        3.46      -0.172
  WS02006235           JUNCTION      0.00   480.00     0  03:40           0        3.39       0.206
  WS02006238           JUNCTION      0.00   419.76     0  03:41           0        3.27      -0.120
  WS02006239           JUNCTION      0.00   419.36     0  03:41           0        3.21      -0.089
  WS02006240           JUNCTION      0.00   421.30     0  03:40           0         3.2      -0.032
  WS02006242           JUNCTION      0.00   422.37     0  03:40           0         3.2       0.014
  WS02006243           JUNCTION      0.00   466.92     0  01:34           0        2.79      -0.099
  WS02006245           JUNCTION      0.00   495.71     0  01:34           0         2.8       0.429
  WS02006247           JUNCTION      0.00   495.06     0  01:34           0         2.8      -0.047
  WS02006248           JUNCTION      0.00   521.95     0  01:33           0        3.08       0.024
  WS02006249           JUNCTION      0.00  1379.72     0  02:01           0        6.88       0.107
  WS02006251           JUNCTION      0.08  1710.71     0  02:01     0.00222        7.13      -0.028
  WS02006252           JUNCTION      0.00   731.77     0  02:01           0        3.81      -0.045
  WS02006253           JUNCTION     44.68  1710.43     0  02:01      0.0599         4.1       0.015
  WS02006256           JUNCTION      0.00   300.00     0  00:00           0       0.778       3.604
  WS02006280           JUNCTION      0.00  2304.84     0  01:59           0        9.53       0.001
  WS02006284           JUNCTION      0.10  2304.93     0  01:59     0.00275        9.53       0.005
  WS02006287           JUNCTION      0.00  2306.28     0  02:01           0        9.52       0.008
  WSF200               JUNCTION      0.00  1337.94     0  02:02           0        9.01       0.006
  YS02001580           JUNCTION      0.00    77.89     0  01:48           0     0.00414       2.658
  YS02001583           JUNCTION      0.00   137.04     0  01:47           0      0.0153      -4.726
  YS02001586           JUNCTION   1092.32  1092.32     0  02:04        2.48         2.5       0.047
  YS02001590           JUNCTION      0.00   317.90     0  02:12           0        1.64      -0.029
  YS02001593           JUNCTION      0.00   318.10     0  02:12           0        1.64       0.014
  YS02001596           JUNCTION      0.00   318.51     0  02:12           0        1.64       0.004
  YS02001600           JUNCTION      0.00   318.29     0  02:12           0        1.64       0.019
  YS02001601           JUNCTION   1912.69  2230.20     0  02:02        3.36           5       0.020
  YS02001602           JUNCTION      0.00   505.09     0  02:41           0         2.7       0.020
  YS02001605           JUNCTION      0.00   505.43     0  02:41           0        2.56       0.025
  YS02001607           JUNCTION      0.00   505.24     0  02:41           0        2.56       0.080
  YS02001610           JUNCTION      0.00   952.96     0  02:07           0        3.15       0.080
  YS02001613           JUNCTION      0.00   616.83     0  02:07           0        2.52       0.065
  YS02001616           JUNCTION      0.00   616.88     0  02:07           0        2.52       0.023
  YS02001619           JUNCTION   1946.06  1946.06     0  02:03        3.99        5.91       0.002
  YS02001622           JUNCTION      0.00  1053.69     0  02:05           0        5.23       0.004
  YS02001625           JUNCTION      0.00  1504.94     0  02:07           0        5.59       0.163
  YS02001629           JUNCTION      0.00   941.87     0  02:29           0         4.4       0.025
  YS02001633           JUNCTION   1440.20  1440.20     0  02:02        2.47        6.36       0.057
  YS02001641           JUNCTION      0.00  1360.75     0  01:52           0        5.85       0.050
  YS02001644           JUNCTION   1287.83  2003.38     0  02:02        2.14        7.99       0.043
  YS02001647           JUNCTION      0.00  1762.93     0  01:52           0        6.99       0.006
  YS02001649           JUNCTION      0.00  2013.35     0  01:52           0        8.96       0.006
  YS02001652           JUNCTION      0.00  1272.21     0  02:01           0        1.98      -0.066
  YS02001655           JUNCTION      0.15  1272.40     0  02:01     0.00443        1.98       0.023
  YS02001658           JUNCTION      0.00  1272.40     0  02:01           0        1.97      -0.027
  YS02001661           JUNCTION      0.00  1272.08     0  02:01           0        1.97      -0.006
  YS02001664           JUNCTION   1258.43  1258.43     0  02:02        1.97        1.97      -0.004
  YS02001745           JUNCTION    788.83   788.83     0  02:02        1.18        1.18       0.089
  YS02001748           JUNCTION      0.04   807.19     0  02:01      0.0013        1.18      -0.124
  YS02001751           JUNCTION      0.01   807.57     0  02:01    0.000317        1.19       0.031
  YS02001754           JUNCTION      0.26   807.81     0  02:01     0.00749         1.2      -0.064
  YS02001757           JUNCTION      0.00  3550.29     0  02:04           0        13.8       0.038
  YS02001759           JUNCTION   1097.32  1507.62     0  02:03        1.64        3.62      -0.003
  YS02001762           JUNCTION      0.00   832.69     0  02:10           0        1.98       0.009
  YS02001765           JUNCTION      0.00   832.02     0  02:10           0        1.98       0.005
  YS02001767           JUNCTION      0.54   831.67     0  02:10      0.0154        1.98       0.006
  YS02001770           JUNCTION   1561.31  1561.31     0  02:02        2.48        2.52      -0.005
  YS02001774           JUNCTION      0.00   851.19     0  02:04           0       0.518       0.279
  YS02001779           JUNCTION      0.01   851.16     0  02:04    0.000144       0.474      -0.121
  YS02001783           JUNCTION      0.00  1173.24     0  02:00           0        4.99       0.006
  YS02001784           JUNCTION      1.06  1174.37     0  02:00      0.0305        5.02       0.011
  YS02001786           JUNCTION      0.06  1174.24     0  02:00     0.00162        5.02       0.014
  YS02001788           JUNCTION      0.07  1174.49     0  02:00     0.00204        5.02       0.005
  YS02001790           JUNCTION      0.15  1181.06     0  02:01     0.00446        5.03      -0.001
  YS02001791           JUNCTION      0.00  1294.69     0  02:01           0        5.03      -0.001
  YS02001793           JUNCTION      0.00  1246.66     0  01:55           0        5.03      -0.053
  YS02001882           JUNCTION      0.00    40.93     0  01:50           0      0.0127       5.314
  YS02001884           JUNCTION      0.00    46.32     0  01:49           0      0.0485       5.494
  YS02001887           JUNCTION   1186.10  1186.10     0  02:01         1.7        1.73       0.260
  YS02001890           JUNCTION      0.00  1186.72     0  02:01           0        1.69       0.306
  YS02001895           JUNCTION      0.00   517.75     0  02:07           0        1.39       0.135
  YS02001898           JUNCTION      0.00   517.36     0  02:07           0        1.39       0.007
  YS02001901           JUNCTION      0.00   517.39     0  02:07           0         1.4       0.241
  YS02001904           JUNCTION      0.00   517.64     0  02:07           0         1.4       0.206
  YS02001907           JUNCTION      0.00  2938.93     0  02:02           0        5.19       0.350
  YS02001910           JUNCTION      0.00  1992.87     0  02:03           0        3.68       0.197
  YS02001915           JUNCTION   1388.57  2066.87     0  02:02        2.36        3.72       0.044
  YS02001918           JUNCTION      0.00   682.70     0  02:03           0        1.38       0.013
  YS02001920           JUNCTION      2.87   682.85     0  02:03      0.0827        1.36       0.077
  YS02001923           JUNCTION      0.04   679.44     0  02:03     0.00109        1.27      -0.014
  YS02001926           JUNCTION      0.05   679.75     0  02:03      0.0015        1.25      -0.005
  YS02001929           JUNCTION    678.94   678.94     0  02:03        1.24        1.24      -0.026
  YS02006553           JUNCTION      0.00   795.42     0  02:24           0        2.79       0.421
  YS02006556           JUNCTION      0.00   795.53     0  02:24           0         2.8       0.297
  YS02006558           JUNCTION   1598.55  1598.55     0  02:02        2.49        5.14       0.068
  YS02006561           JUNCTION      0.00  1173.52     0  02:00           0        4.99       0.001
  YS02163301           JUNCTION      0.00   941.36     0  02:29           0         4.4       0.037
  YS02163601           JUNCTION      0.11  1363.40     0  01:52     0.00317        5.85       0.087
  YS02164001           JUNCTION      0.00  1362.38     0  01:52           0        5.85       0.044
  YSB1154              JUNCTION    527.79   527.79     0  02:02       0.836       0.837       0.173
  YSB1171              JUNCTION      0.00  1215.91     0  02:02           0        1.65       0.384
  YSB1174              JUNCTION    459.82   459.82     0  02:01       0.639       0.639       0.198
  YSB6556              JUNCTION      0.00   527.88     0  02:02           0       0.838       0.143
  CC-1                 OUTFALL       0.00   683.00     0  00:00           0        6.14       0.000
  CC-2                 OUTFALL       0.00   683.00     0  00:00           0        6.14       0.000
  JK-1                 OUTFALL       0.00  1000.00     0  00:00           0        2.51       0.000
  JK-2                 OUTFALL       0.00  1000.00     0  00:00           0        2.51       0.000
  WSC                  OUTFALL       0.00  1538.23     0  02:06           0        14.8       0.000
  CC-storage           STORAGE       0.00  3549.43     0  02:04           0          16      -0.317
  JK-storage           STORAGE       0.00  1326.80     0  02:01           0        5.18     -10.471
  XR-storage           STORAGE     200.00   200.00     0  00:00        5.76        6.36       0.001
  
  
  **********************
  Node Surcharge Summary
  **********************
  
  Surcharging occurs when water rises above the top of the highest conduit.
  ---------------------------------------------------------------------
                                               Max. Height   Min. Depth
                                   Hours       Above Crown    Below Rim
  Node                 Type      Surcharged         Meters       Meters
  ---------------------------------------------------------------------
  HS02004478           JUNCTION        0.59          0.715        0.225
  HS02004479           JUNCTION        0.73          1.023        0.027
  HS02004480           JUNCTION        0.77          1.100        0.000
  HS02004770           JUNCTION        0.67          0.720        0.000
  HS02004777           JUNCTION        0.67          0.780        0.000
  HS02004785           JUNCTION        0.62          0.790        0.000
  HS02004788           JUNCTION        0.61          0.720        0.000
  HS02004792           JUNCTION        0.74          0.900        0.000
  HS02004799           JUNCTION        0.87          1.060        0.000
  HS02004802           JUNCTION        0.78          1.133        0.077
  HS02004807           JUNCTION        0.76          1.220        0.000
  HS02004817           JUNCTION        1.40          1.740        0.000
  HS02004824           JUNCTION        0.61          1.310        0.000
  HS02004830           JUNCTION        0.59          1.330        0.000
  HS02004837           JUNCTION        0.54          1.340        0.000
  HS02004842           JUNCTION        0.69          1.520        0.000
  HS02004848           JUNCTION        0.51          1.370        0.000
  HS02004852           JUNCTION        0.53          1.420        0.000
  HS02004856           JUNCTION        0.52          1.300        0.000
  HS02004862           JUNCTION        0.56          1.300        0.000
  HS02004870           JUNCTION        0.58          1.400        0.000
  HS02004876           JUNCTION        0.66          1.560        0.000
  HS02004881           JUNCTION        0.64          1.179        0.271
  HS02004901           JUNCTION        0.68          0.720        0.000
  WS02004401           JUNCTION        1.66          0.967        0.693
  WS02004402           JUNCTION        1.69          0.903        0.837
  WS02004403           JUNCTION        1.70          0.824        1.206
  WS02004404           JUNCTION        1.87          0.833        1.947
  WS02004405           JUNCTION        1.83          0.776        2.024
  WS02004406           JUNCTION        1.80          0.657        1.793
  WS02004409           JUNCTION        1.13          0.427        1.933
  WS02004410           JUNCTION        1.08          0.328        2.212
  WS02004411           JUNCTION        0.99          0.228        2.302
  WS02004412           JUNCTION        0.89          0.122        2.188
  WS02004413           JUNCTION        1.43          0.155        2.045
  WS02006109           JUNCTION        2.32          1.820        0.000
  WS02006110           JUNCTION        2.13          1.518        0.332
  WS02006111           JUNCTION        1.40          1.033        0.837
  WS02006112           JUNCTION        2.15          1.498        0.182
  WS02006113           JUNCTION        1.42          1.090        0.840
  WS02006115           JUNCTION        1.57          1.068        1.182
  WS02006116           JUNCTION        1.59          1.002        1.288
  WS02006228           JUNCTION        2.30          2.200        0.000
  WS02006229           JUNCTION        1.02          1.067        0.003
  WS02006230           JUNCTION        1.91          1.570        0.000
  WS02006231           JUNCTION        2.12          1.530        0.000
  WS02006232           JUNCTION        2.34          1.480        0.000
  WS02006234           JUNCTION        2.14          1.240        0.000
  WS02006235           JUNCTION        2.23          1.290        0.000
  WS02006238           JUNCTION        2.28          1.430        0.000
  WS02006239           JUNCTION        2.23          1.290        0.000
  WS02006240           JUNCTION        2.24          1.390        0.000
  WS02006242           JUNCTION        2.36          0.820        0.000
  WS02006243           JUNCTION        2.25          0.770        0.000
  WS02006245           JUNCTION        2.25          0.850        0.000
  WS02006247           JUNCTION        2.28          0.760        0.000
  WS02006248           JUNCTION        2.23          0.380        0.000
  WS02006249           JUNCTION        2.27          0.390        0.000
  WS02006251           JUNCTION        2.04          1.180        0.000
  WS02006252           JUNCTION        2.50          1.100        0.000
  WS02006253           JUNCTION        2.04          2.103        0.377
  WS02006256           JUNCTION        6.28          2.050        0.000
  WS02006280           JUNCTION        0.88          0.766        0.014
  WS02006284           JUNCTION        0.80          0.755        0.045
  WS02006287           JUNCTION        0.70          0.804        0.086
  YS02001580           JUNCTION        0.87          0.450        0.000
  YS02001583           JUNCTION        0.88          0.500        0.000
  YS02001586           JUNCTION        0.99          0.510        0.000
  YS02001590           JUNCTION        1.08          0.750        0.000
  YS02001593           JUNCTION        1.08          0.712        0.128
  YS02001596           JUNCTION        1.22          1.029        0.041
  YS02001600           JUNCTION        1.41          1.190        0.000
  YS02001601           JUNCTION        1.70          1.440        0.000
  YS02001602           JUNCTION        1.61          1.270        0.000
  YS02001605           JUNCTION        1.56          1.180        0.000
  YS02001607           JUNCTION        1.00          0.680        0.000
  YS02001610           JUNCTION        1.04          0.680        0.000
  YS02001613           JUNCTION        0.99          0.670        0.030
  YS02001616           JUNCTION        0.94          0.610        0.000
  YS02001619           JUNCTION        0.92          0.610        0.000
  YS02001622           JUNCTION        0.91          0.586        0.034
  YS02001625           JUNCTION        1.15          0.780        0.000
  YS02001629           JUNCTION        0.81          0.470        0.000
  YS02001633           JUNCTION        1.16          1.060        0.000
  YS02001641           JUNCTION        1.01          1.100        0.000
  YS02001644           JUNCTION        0.95          0.920        0.000
  YS02001647           JUNCTION        0.66          0.900        0.000
  YS02001649           JUNCTION        0.75          1.050        0.000
  YS02001652           JUNCTION        0.53          0.988        0.142
  YS02001655           JUNCTION        0.39          0.706        0.494
  YS02001658           JUNCTION        0.29          0.778        0.522
  YS02001661           JUNCTION        0.13          0.255        1.135
  YS02001748           JUNCTION        0.20          0.679        0.511
  YS02001751           JUNCTION        0.32          0.718        0.482
  YS02001754           JUNCTION        0.39          0.769        0.381
  YS02001757           JUNCTION        0.75          1.210        0.000
  YS02001759           JUNCTION        0.65          1.210        0.000
  YS02001762           JUNCTION        0.62          1.150        0.000
  YS02001765           JUNCTION        0.57          1.100        0.000
  YS02001767           JUNCTION        0.54          1.030        0.000
  YS02001770           JUNCTION        0.52          0.920        0.000
  YS02001774           JUNCTION        0.61          1.050        0.000
  YS02001779           JUNCTION        0.41          0.680        0.000
  YS02001783           JUNCTION        0.74          0.570        1.030
  YS02001784           JUNCTION        0.71          0.390        1.100
  YS02001786           JUNCTION        0.59          0.127        1.303
  YS02001882           JUNCTION        0.68          0.772        0.058
  YS02001884           JUNCTION        0.69          0.811        0.059
  YS02001887           JUNCTION        0.73          0.950        0.000
  YS02001890           JUNCTION        0.75          0.760        0.000
  YS02001895           JUNCTION        0.66          0.631        0.119
  YS02001898           JUNCTION        0.65          0.567        0.173
  YS02001901           JUNCTION        0.72          0.716        0.154
  YS02001904           JUNCTION        0.70          0.696        0.154
  YS02001907           JUNCTION        1.01          0.950        0.000
  YS02001910           JUNCTION        0.78          1.014        0.086
  YS02001915           JUNCTION        0.67          1.000        0.000
  YS02001918           JUNCTION        0.57          0.810        0.000
  YS02001920           JUNCTION        0.59          1.128        0.012
  YS02001923           JUNCTION        0.24          0.820        0.000
  YS02001926           JUNCTION        0.27          0.900        0.000
  YS02001929           JUNCTION        0.12          0.780        0.000
  YS02006553           JUNCTION        1.04          1.021        0.169
  YS02006556           JUNCTION        0.90          1.057        0.293
  YS02006558           JUNCTION        0.88          1.087        0.313
  YS02006561           JUNCTION        0.54          0.297        0.853
  YS02163301           JUNCTION        1.13          0.981        0.049
  YS02163601           JUNCTION        1.20          1.080        0.000
  YS02164001           JUNCTION        1.04          1.100        0.000
  YSB1154              JUNCTION        1.01          1.400        0.000
  YSB1171              JUNCTION        1.01          1.100        0.000
  YSB1174              JUNCTION        0.91          1.250        0.000
  YSB6556              JUNCTION        0.84          1.100        0.000
  
  
  *********************
  Node Flooding Summary
  *********************
  
  Flooding refers to all water that overflows a node, whether it ponds or not.
  --------------------------------------------------------------------------
                                                             Total   Maximum
                                 Maximum   Time of Max       Flood    Ponded
                        Hours       Rate    Occurrence      Volume     Depth
  Node                 Flooded       LPS   days hr:min    10^6 ltr    Meters
  --------------------------------------------------------------------------
  HS02004480              0.01      2.50      0  01:55       0.000     0.000
  HS02004770              0.46   1575.15      0  02:02       1.133     0.000
  HS02004777              0.01      2.10      0  01:52       0.000     0.000
  HS02004785              0.01    205.62      0  01:52       0.000     0.000
  HS02004788              0.01    370.94      0  01:52       0.002     0.000
  HS02004792              0.47   2145.54      0  02:02       1.771     0.000
  HS02004799              0.27    298.03      0  02:02       0.163     0.000
  HS02004807              0.17    538.48      0  02:02       0.228     0.000
  HS02004817              0.01      8.02      0  01:55       0.000     0.000
  HS02004824              0.11    142.70      0  02:03       0.039     0.000
  HS02004830              0.01     34.50      0  01:55       0.000     0.000
  HS02004837              0.01     37.16      0  01:55       0.000     0.000
  HS02004842              0.10    190.22      0  01:55       0.032     0.000
  HS02004848              0.01    364.07      0  01:55       0.001     0.000
  HS02004852              0.01    137.23      0  01:54       0.000     0.000
  HS02004856              0.01    321.95      0  01:54       0.001     0.000
  HS02004862              0.09    465.31      0  01:54       0.034     0.000
  HS02004870              0.01    354.12      0  01:54       0.001     0.000
  HS02004876              0.01     77.36      0  01:54       0.000     0.000
  HS02004901              0.54    741.66      0  02:02       0.899     0.000
  WS02006109              0.52    341.58      0  02:02       0.351     0.000
  WS02006228              0.01      6.32      0  01:52       0.000     0.000
  WS02006230              0.81    573.97      0  01:59       1.165     0.000
  WS02006231              0.01    165.16      0  01:35       0.000     0.000
  WS02006232              0.25      5.11      0  02:57       0.000     0.000
  WS02006234              0.88     85.91      0  02:00       0.181     0.000
  WS02006235              0.01     18.10      0  02:57       0.000     0.000
  WS02006238              0.01     16.29      0  02:57       0.000     0.000
  WS02006239              0.01      6.82      0  02:57       0.000     0.000
  WS02006240              0.01      7.73      0  02:57       0.000     0.000
  WS02006242              1.08    130.28      0  02:00       0.404     0.000
  WS02006243              0.01    127.31      0  01:35       0.000     0.000
  WS02006245              0.01      2.23      0  02:57       0.000     0.000
  WS02006247              0.01      1.69      0  02:57       0.000     0.000
  WS02006248              1.41    340.05      0  01:49       1.339     0.000
  WS02006249              2.03   1318.72      0  02:01       4.851     0.000
  WS02006251              0.01     41.68      0  01:55       0.000     0.000
  WS02006252              0.58    731.22      0  02:01       0.788     0.000
  WS02006256              0.72    298.56      0  02:27       0.584     0.000
  YS02001580              0.01     50.45      0  01:48       0.000     0.000
  YS02001583              0.01     61.89      0  01:48       0.000     0.000
  YS02001586              0.72    774.77      0  02:03       0.842     0.000
  YS02001590              0.01      7.29      0  01:48       0.000     0.000
  YS02001600              0.01      2.24      0  01:48       0.000     0.000
  YS02001601              0.89   1832.41      0  02:02       2.297     0.000
  YS02001602              0.68     62.04      0  01:55       0.141     0.000
  YS02001605              0.01      0.23      0  02:27       0.000     0.000
  YS02001607              0.01      0.40      0  01:55       0.000     0.000
  YS02001610              0.61    952.93      0  02:07       1.231     0.000
  YS02001616              0.07     11.08      0  02:12       0.000     0.000
  YS02001619              0.15    284.20      0  02:03       0.088     0.000
  YS02001625              0.53   1504.83      0  02:07       1.692     0.000
  YS02001629              0.24    320.66      0  02:02       0.145     0.000
  YS02001641              0.01      0.85      0  01:55       0.000     0.000
  YS02001644              0.28   2002.78      0  02:02       0.992     0.000
  YS02001647              0.01      1.87      0  01:55       0.000     0.000
  YS02001649              0.01      3.98      0  01:55       0.000     0.000
  YS02001757              0.01      2.14      0  01:55       0.000     0.000
  YS02001759              0.01      2.84      0  01:55       0.000     0.000
  YS02001762              0.01      3.65      0  01:55       0.000     0.000
  YS02001765              0.01      3.50      0  01:55       0.000     0.000
  YS02001767              0.01      2.62      0  01:55       0.000     0.000
  YS02001770              0.09    313.15      0  02:01       0.056     0.000
  YS02001774              0.01      4.19      0  01:55       0.000     0.000
  YS02001779              0.26    850.99      0  02:04       0.455     0.000
  YS02001887              0.01      0.53      0  01:55       0.000     0.000
  YS02001890              0.28    670.34      0  02:01       0.288     0.000
  YS02001907              0.51   2938.74      0  02:02       2.511     0.000
  YS02001915              0.06     75.71      0  02:02       0.009     0.000
  YS02001918              0.01    107.32      0  01:53       0.001     0.000
  YS02001923              0.01    109.26      0  01:53       0.000     0.000
  YS02001926              0.01    158.16      0  01:53       0.000     0.000
  YS02001929              0.01    270.77      0  01:53       0.001     0.000
  YS02163601              0.01      0.51      0  01:55       0.000     0.000
  YS02164001              0.01      1.67      0  01:55       0.000     0.000
  YSB1154                 0.01      0.13      0  01:55       0.000     0.000
  YSB1171                 0.36   1215.72      0  02:02       0.890     0.000
  YSB1174                 0.01      0.21      0  01:55       0.000     0.000
  YSB6556                 0.01     14.68      0  01:52       0.000     0.000
  
  
  **********************
  Storage Volume Summary
  **********************
  
  --------------------------------------------------------------------------------------------------
                         Average     Avg  Evap Exfil       Maximum     Max    Time of Max    Maximum
                          Volume    Pcnt  Pcnt  Pcnt        Volume    Pcnt     Occurrence    Outflow
  Storage Unit           1000 m3    Full  Loss  Loss       1000 m3    Full    days hr:min        LPS
  --------------------------------------------------------------------------------------------------
  CC-storage               1.064      17     0     0         3.474      54       0  02:44    1783.53
  JK-storage               0.003       1     0     0         0.150      52       0  00:00    2300.00
  XR-storage               0.935      65     0     0         1.111      77       0  08:00     380.00
  
  
  ***********************
  Outfall Loading Summary
  ***********************
  
  -----------------------------------------------------------
                         Flow       Avg       Max       Total
                         Freq      Flow      Flow      Volume
  Outfall Node           Pcnt       LPS       LPS    10^6 ltr
  -----------------------------------------------------------
  CC-1                  52.74    683.00    683.00       6.144
  CC-2                  52.74    683.00    683.00       6.144
  JK-1                  15.73    990.90   1000.00       2.510
  JK-2                  15.73    990.90   1000.00       2.510
  WSC                   99.95    700.06   1538.23      14.821
  -----------------------------------------------------------
  System                47.38   4047.87   1538.23      32.129
  
  
  ********************
  Link Flow Summary
  ********************
  
  -----------------------------------------------------------------------------
                                 Maximum  Time of Max   Maximum    Max/    Max/
                                  |Flow|   Occurrence   |Veloc|    Full    Full
  Link                 Type          LPS  days hr:min     m/sec    Flow   Depth
  -----------------------------------------------------------------------------
  1                    CONDUIT   1538.23     0  02:06      3.72    0.54    0.52
  HS02004478WS02006287 CONDUIT   2306.28     0  02:01      2.61    0.65    1.00
  HS02004479HS02004480 CONDUIT    420.45     0  01:54      0.60    0.41    1.00
  HS02004480HS02004478 CONDUIT   2095.75     0  01:53      2.99    8.83    1.00
  HS02004770HS02004777 CONDUIT    735.85     0  01:52      1.05    1.35    1.00
  HS02004777HS02004785 CONDUIT    741.81     0  01:52      1.12    0.91    1.00
  HS02004785HS02004788 CONDUIT    720.36     0  01:52      1.35    5.43    1.00
  HS02004788HS02004792 CONDUIT    878.56     0  02:01      1.44    0.58    1.00
  HS02004792HS02004799 CONDUIT   1573.31     0  01:53      2.25    0.96    1.00
  HS02004799HS02004480 CONDUIT   1735.65     0  01:53      2.48    2.19    1.00
  HS02004802HS02004478 CONDUIT   1233.26     0  02:05      1.76    1.09    1.00
  HS02004807HS02004802 CONDUIT   1232.86     0  02:08      1.76    2.35    1.00
  HS02004817HS02004807 CONDUIT   1196.87     0  02:05      1.71    0.71    1.00
  HS02004817HS02004824 CONDUIT   1196.26     0  02:04      1.71    0.54    1.00
  HS02004824HS02004830 CONDUIT    628.50     0  01:53      0.90    0.82    1.00
  HS02004830HS02004837 CONDUIT    633.30     0  01:53      0.99    0.63    1.00
  HS02004837HS02004842 CONDUIT    842.52     0  01:54      1.20    0.50    1.00
  HS02004842HS02004848 CONDUIT    844.42     0  01:54      1.31    0.49    1.00
  HS02004848HS02004852 CONDUIT   1032.27     0  01:54      1.61    1.16    1.00
  HS02004852HS02004856 CONDUIT    982.21     0  01:54      1.48    1.12    1.00
  HS02004856HS02004862 CONDUIT   1082.03     0  01:54      1.70    1.08    1.00
  HS02004862HS02004870 CONDUIT   1083.09     0  01:54      1.78    1.17    1.00
  HS02004870HS02004876 CONDUIT   1249.29     0  02:05      1.78    0.83    1.00
  HS02004876HS02004881 CONDUIT   1513.15     0  02:05      2.16   16.09    1.00
  HS02004881HS02006253 CONDUIT   1666.76     0  02:02      2.42    0.33    1.00
  HS02004901HS02004770 CONDUIT    265.79     0  02:19      0.38    1.00    1.00
  WS02001211WS02001212 CONDUIT    207.23     0  02:49      0.54    0.16    0.70
  WS02001212WS02001213 CONDUIT    210.60     0  02:49      1.04    0.32    0.57
  WS02001213WS02003059 CONDUIT    214.27     0  02:48      0.47    0.35    0.90
  WS02003059WS02003060 CONDUIT    219.21     0  03:13      0.66    0.14    0.82
  WS02003060WS02003069 CONDUIT   1536.28     0  02:05      2.09    0.60    0.62
  WS02003066WSF200     CONDUIT   1337.94     0  02:02      3.27    0.23    0.39
  WS02003067WS02003066 CONDUIT   1337.78     0  02:02      2.03    0.43    0.56
  WS02003069WS02003072 CONDUIT   1536.53     0  02:05      1.91    0.74    0.67
  WS02003072WS02003073 CONDUIT   1536.52     0  02:06      2.07    3.32    0.62
  WS02004138WS02004139 CONDUIT    190.00     0  00:32      2.16    0.04    0.42
  WS02004139WS02001211 CONDUIT    197.89     0  01:46      0.54    0.25    0.61
  WS02004401WS02004402 CONDUIT   1337.85     0  02:01      1.70    1.61    1.00
  WS02004402WS02004403 CONDUIT   1338.50     0  02:01      1.70    1.92    1.00
  WS02004403WS02004404 CONDUIT   1337.90     0  02:01      1.70    0.97    1.00
  WS02004404WS02004405 CONDUIT   1338.17     0  02:01      1.70   13.11    1.00
  WS02004405WS02004406 CONDUIT   1338.41     0  02:01      1.70    2.64    1.00
  WS02004406WS02004407 CONDUIT   1338.27     0  02:01      1.71    0.60    1.00
  WS02004407WS02004409 CONDUIT   1337.29     0  02:02      1.91    0.47    1.00
  WS02004409WS02004410 CONDUIT   1337.31     0  02:02      1.70    1.73    1.00
  WS02004410WS02004411 CONDUIT   1337.35     0  02:02      1.70    1.83    1.00
  WS02004411WS02004412 CONDUIT   1337.33     0  02:02      1.70    1.90    1.00
  WS02004412WS02004413 CONDUIT   1337.21     0  02:02      1.70    0.90    1.00
  WS02004413WS02003067 CONDUIT   1337.22     0  02:02      2.06    0.57    0.77
  WS02006109WS02006110 CONDUIT   1125.22     0  02:24      2.24    2.16    1.00
  WS02006110WS02006113 CONDUIT   1125.10     0  02:24      2.24    1.02    1.00
  WS02006111WS02006112 CONDUIT   1125.30     0  02:24      2.24    0.54    1.00
  WS02006112WS02006115 CONDUIT   1338.03     0  02:01      1.70    0.79    1.00
  WS02006113WS02006111 CONDUIT   1125.08     0  02:24      2.70    1.35    1.00
  WS02006115WS02006116 CONDUIT   1337.98     0  02:01      1.70    1.72    1.00
  WS02006116WS02004401 CONDUIT   1337.99     0  02:01      1.70    1.84    1.00
  WS02006228WS02006109 CONDUIT   1288.55     0  01:59      2.56    5.63    1.00
  WS02006229WS02006228 CONDUIT   1288.73     0  01:59      2.56    4.27    1.00
  WS02006230WS02006229 CONDUIT   1016.32     0  01:59      2.64   22.62    1.00
  WS02006231WS02006230 CONDUIT    467.91     0  03:40      1.38    7.10    1.00
  WS02006232WS02006231 CONDUIT    463.64     0  03:40      1.20    0.97    1.00
  WS02006234WS02006232 CONDUIT    459.38     0  03:40      1.39    0.93    1.00
  WS02006235WS02006234 CONDUIT    456.54     0  03:40      1.21    4.82    1.00
  WS02006238WS02006235 CONDUIT    431.34     0  03:40      1.45    0.96    1.00
  WS02006239WS02006238 CONDUIT    419.76     0  03:41      1.10    1.34    1.00
  WS02006240WS02006239 CONDUIT    419.36     0  03:41      1.25    1.32    1.00
  WS02006242WS02006240 CONDUIT    421.30     0  03:40      1.15    1.67    1.00
  WS02006243WS02006242 CONDUIT    422.37     0  03:40      1.34    0.90    1.00
  WS02006245WS02006243 CONDUIT    466.92     0  01:34      1.46    1.38    1.00
  WS02006247WS02006245 CONDUIT    495.71     0  01:34      1.48    3.93    1.00
  WS02006248WS02006247 CONDUIT    495.06     0  01:34      1.42    1.08    1.00
  WS02006249WS02006248 CONDUIT    521.95     0  01:33      1.46    2.86    1.00
  WS02006251WS02006249 CONDUIT   1379.72     0  02:01      3.59    3.98    1.00
  WS02006252WS02006251 CONDUIT    411.78     0  01:40      4.83    1.51    1.00
  WS02006253WS02006251 CONDUIT   1710.63     0  02:01      4.44    5.13    1.00
  WS02006256WS02006235 CONDUIT    288.93     0  00:00      4.23    3.06    1.00
  WS02006280WS02006229 CONDUIT   2305.72     0  01:59      4.11    0.49    1.00
  WS02006284WS02006280 CONDUIT   2304.84     0  01:59      3.02    0.97    1.00
  WS02006287WS02006284 CONDUIT   2304.84     0  01:59      2.93    1.07    1.00
  WSF200WS02003060     CONDUIT   1338.13     0  02:02      2.33    0.30    0.51
  YS02001580YS02001583 CONDUIT     77.89     0  01:48      0.57    0.30    1.00
  YS02001583YS02001586 CONDUIT    137.04     0  01:47      0.57    0.21    1.00
  YS02001586YS02001590 CONDUIT    317.90     0  02:12      1.29    0.56    1.00
  YS02001590YS02001593 CONDUIT    318.10     0  02:12      1.13    2.00    1.00
  YS02001593YS02001596 CONDUIT    318.51     0  02:12      1.77    0.50    1.00
  YS02001596YS02001600 CONDUIT    318.29     0  02:12      1.27    0.62    1.00
  YS02001600YS02001601 CONDUIT    317.90     0  02:12      1.12    0.55    1.00
  YS02001601YS02001602 CONDUIT    505.09     0  02:41      1.79    1.82    1.00
  YS02001602YS02001605 CONDUIT    505.43     0  02:41      1.79   10.70    1.00
  YS02001605YS02001607 CONDUIT    505.24     0  02:41      1.79    2.77    1.00
  YS02001607YS02001610 CONDUIT    506.09     0  02:41      0.64    0.48    1.00
  YS02001610YS02001613 CONDUIT    616.95     0  02:07      0.79    0.71    1.00
  YS02001613YS02001616 CONDUIT    616.83     0  02:07      0.79    0.53    1.00
  YS02001616YS02001619 CONDUIT    616.88     0  02:07      0.79    1.07    1.00
  YS02001619YS02001622 CONDUIT   1053.69     0  02:05      1.34    1.55    1.00
  YS02001622YS02001625 CONDUIT   1053.55     0  02:04      1.34    0.56    1.00
  YS02001625YS02001629 CONDUIT    941.87     0  02:29      1.20    0.45    1.00
  YS02001629YS02163301 CONDUIT    941.36     0  02:29      1.20    1.16    1.00
  YS02001633YS02163601 CONDUIT   1363.29     0  01:52      1.74    1.43    1.00
  YS02001641YS02001644 CONDUIT   1359.91     0  01:52      1.73    4.40    1.00
  YS02001644YS02001647 CONDUIT   1762.93     0  01:52      2.25    1.04    1.00
  YS02001647YS02001649 CONDUIT   1781.14     0  01:52      2.30    0.94    1.00
  YS02001649YS02001757 CONDUIT   2012.57     0  01:52      2.56    1.22    1.00
  YS02001652YS02001649 CONDUIT   1272.84     0  02:01      1.62    0.63    1.00
  YS02001655YS02001652 CONDUIT   1272.21     0  02:01      1.62    0.62    1.00
  YS02001658YS02001655 CONDUIT   1272.25     0  02:01      1.84    0.54    1.00
  YS02001661YS02001658 CONDUIT   1272.40     0  02:01      2.28    0.50    1.00
  YS02001664YS02001661 CONDUIT   1272.08     0  02:01      2.27    0.40    0.92
  YS02001745YS02001748 CONDUIT    807.15     0  02:01      2.15    0.31    0.97
  YS02001748YS02001751 CONDUIT    807.56     0  02:01      1.66    0.41    1.00
  YS02001751YS02001754 CONDUIT    807.55     0  02:01      1.37    0.39    1.00
  YS02001754YS02001757 CONDUIT    807.74     0  02:01      1.03    0.33    1.00
  YS02001757CaochengTiaoxuchi CONDUIT   3549.43     0  02:04      6.63    1.54    1.00
  YS02001759YS02001757 CONDUIT   1507.71     0  02:02      1.92    1.07    1.00
  YS02001762YS02001759 CONDUIT    833.23     0  02:10      1.06    0.96    1.00
  YS02001765YS02001762 CONDUIT    832.69     0  02:10      1.06    0.78    1.00
  YS02001767YS02001765 CONDUIT    832.02     0  02:10      1.06    1.05    1.00
  YS02001770YS02001767 CONDUIT    831.14     0  02:10      1.06    3.29    1.00
  YS02001774YS02001770 CONDUIT    851.19     0  02:04      1.08    0.54    1.00
  YS02001779YS02001774 CONDUIT    851.15     0  02:04      1.08    0.43    1.00
  YS02001783YS02001784 CONDUIT   1173.31     0  02:00      2.33    1.62    1.00
  YS02001784YS02001785 CONDUIT   1174.19     0  02:00      2.34    2.73    1.00
  YS02001786YS02001788 CONDUIT   1174.42     0  02:00      2.50    2.26    0.89
  YS02001788YS02001790 CONDUIT   1180.91     0  02:01      2.73    0.87    0.84
  YS02001790YS02001791 CONDUIT   1294.69     0  02:01      3.43    1.41    0.71
  YS02001791YS02001793 CONDUIT   1246.66     0  01:55      6.48    0.54    0.43
  YS02001793JiankangQianchi CONDUIT   1326.80     0  02:01     24.24    0.11    0.50
  YS02001882YS02001884 CONDUIT     40.93     0  01:50      0.16    0.05    1.00
  YS02001884YS02001887 CONDUIT     46.32     0  01:49      0.12    0.06    1.00
  YS02001887YS02001890 CONDUIT   1186.72     0  02:01      1.51    2.03    1.00
  YS02001890YS02001895 CONDUIT    517.75     0  02:07      0.66    0.24    1.00
  YS02001895YS02001898 CONDUIT    517.36     0  02:07      0.66    0.90    1.00
  YS02001898YS02001901 CONDUIT    517.39     0  02:07      0.66    0.33    1.00
  YS02001901YS02001904 CONDUIT    517.64     0  02:07      0.66    0.80    1.00
  YS02001904YS02001907 CONDUIT    517.98     0  02:05      0.66    0.18    1.00
  YS02001907YS02006553 CONDUIT    795.42     0  02:24      0.88    0.94    1.00
  YS02001910YS02001907 CONDUIT   1992.77     0  02:03      2.54    1.12    1.00
  YS02001915YS02001910 CONDUIT   1992.87     0  02:03      2.54    0.99    1.00
  YS02001918YS02001915 CONDUIT    682.93     0  02:03      0.87    0.38    1.00
  YS02001920YS02001918 CONDUIT    682.70     0  02:03      0.87    0.66    1.00
  YS02001923YS02001920 CONDUIT    679.98     0  02:03      0.87    0.31    1.00
  YS02001926YS02001923 CONDUIT    679.40     0  02:03      0.94    0.97    1.00
  YS02001929YS02001926 CONDUIT    679.70     0  02:03      1.09    0.32    1.00
  YS02006553YS02006556 CONDUIT    795.53     0  02:24      1.01    0.68    1.00
  YS02006556YS02006558 CONDUIT    796.49     0  02:24      1.01    0.63    1.00
  YS02006558YS02006561 CONDUIT   1173.52     0  02:00      4.15    2.59    1.00
  YS02006561YS02001783 CONDUIT   1173.24     0  02:00      2.33    0.61    1.00
  YS02163301YS02001633 CONDUIT    941.25     0  02:29      1.20    0.88    1.00
  YS02163601YS02164001 CONDUIT   1362.38     0  01:52      1.73    1.21    1.00
  YS02164001YS02001641 CONDUIT   1360.75     0  01:52      1.73    1.86    1.00
  YSB1154YSB6556       CONDUIT    527.88     0  02:02      1.37    0.95    1.00
  YSB1171HS02004479    CONDUIT    420.76     0  01:55      0.84    0.28    1.00
  YSB1174YSB1171       CONDUIT    459.90     0  02:01      1.20    0.70    1.00
  YSB6556YSB1171       CONDUIT    528.54     0  02:02      1.37    0.54    1.00
  CC-R1                PUMP       683.00     0  00:00              1.00
  CC-R2                PUMP       683.00     0  00:00              1.00
  CC-S1                PUMP       200.00     0  00:00              1.00
  CC-S2                PUMP       200.00     0  00:00              1.00
  JK-R1                PUMP      1000.00     0  00:00              1.00
  JK-R2                PUMP      1000.00     0  00:00              1.00
  JK-S                 PUMP       300.00     0  00:00              1.00
  XR-1                 PUMP        95.00     0  00:00              1.00
  XR-2                 PUMP        95.00     0  00:00              1.00
  XR-3                 PUMP        95.00     0  00:00              1.00
  XR-4                 PUMP        95.00     0  00:00              1.00
  
  
  ***************************
  Flow Classification Summary
  ***************************
  
  -------------------------------------------------------------------------------------
                      Adjusted    ---------- Fraction of Time in Flow Class ---------- 
                       /Actual         Up    Down  Sub   Sup   Up    Down  Norm  Inlet 
  Conduit               Length    Dry  Dry   Dry   Crit  Crit  Crit  Crit  Ltd   Ctrl  
  -------------------------------------------------------------------------------------
  1                       1.00   0.00  0.00  0.00  0.00  1.00  0.00  0.00  0.44  0.00
  HS02004478WS02006287    1.00   0.14  0.00  0.00  0.59  0.27  0.00  0.00  0.59  0.00
  HS02004479HS02004480    1.00   0.06  0.00  0.00  0.94  0.00  0.00  0.00  0.11  0.00
  HS02004480HS02004478    1.00   0.13  0.00  0.00  0.54  0.00  0.00  0.33  0.00  0.00
  HS02004770HS02004777    1.00   0.00  0.13  0.00  0.87  0.00  0.00  0.00  0.02  0.00
  HS02004777HS02004785    1.00   0.00  0.00  0.00  1.00  0.00  0.00  0.00  0.11  0.00
  HS02004785HS02004788    1.00   0.00  0.00  0.00  1.00  0.00  0.00  0.00  0.00  0.00
  HS02004788HS02004792    1.00   0.00  0.00  0.00  0.99  0.01  0.00  0.00  0.89  0.00
  HS02004792HS02004799    1.00   0.00  0.00  0.00  0.99  0.01  0.00  0.00  0.84  0.00
  HS02004799HS02004480    1.00   0.00  0.05  0.00  0.86  0.00  0.09  0.00  0.00  0.00
  HS02004802HS02004478    1.00   0.13  0.00  0.00  0.87  0.00  0.00  0.00  0.02  0.00
  HS02004807HS02004802    1.00   0.13  0.00  0.00  0.86  0.00  0.00  0.01  0.00  0.00
  HS02004817HS02004807    1.00   0.00  0.13  0.00  0.87  0.00  0.00  0.00  0.01  0.00
  HS02004817HS02004824    1.00   0.00  0.00  0.00  1.00  0.00  0.00  0.00  0.80  0.00
  HS02004824HS02004830    1.00   0.00  0.00  0.00  1.00  0.00  0.00  0.00  0.01  0.00
  HS02004830HS02004837    1.00   0.00  0.00  0.00  1.00  0.00  0.00  0.00  0.86  0.00
  HS02004837HS02004842    1.00   0.00  0.00  0.00  1.00  0.00  0.00  0.00  0.11  0.00
  HS02004842HS02004848    1.00   0.00  0.13  0.00  0.87  0.00  0.00  0.00  0.55  0.00
  HS02004848HS02004852    1.00   0.13  0.00  0.00  0.87  0.00  0.00  0.00  0.70  0.00
  HS02004852HS02004856    1.00   0.13  0.00  0.00  0.87  0.00  0.00  0.00  0.66  0.00
  HS02004856HS02004862    1.00   0.00  0.14  0.00  0.86  0.00  0.00  0.00  0.73  0.00
  HS02004862HS02004870    1.00   0.00  0.00  0.00  1.00  0.00  0.00  0.00  0.03  0.00
  HS02004870HS02004876    1.00   0.00  0.00  0.00  0.97  0.02  0.00  0.00  0.84  0.00
  HS02004876HS02004881    1.00   0.02  0.00  0.00  0.76  0.22  0.00  0.00  0.00  0.00
  HS02004881HS02006253    1.00   0.00  0.07  0.00  0.48  0.00  0.00  0.44  0.18  0.00
  HS02004901HS02004770    1.00   0.13  0.00  0.00  0.87  0.00  0.00  0.00  0.00  0.00
  WS02001211WS02001212    1.00   0.00  0.03  0.00  0.97  0.00  0.00  0.00  0.00  0.00
  WS02001212WS02001213    1.00   0.03  0.00  0.00  0.51  0.00  0.46  0.00  0.00  0.00
  WS02001213WS02003059    1.00   0.00  0.00  0.00  0.99  0.00  0.00  0.00  0.00  0.00
  WS02003059WS02003060    1.00   0.00  0.00  0.00  1.00  0.00  0.00  0.00  0.03  0.00
  WS02003060WS02003069    1.00   0.00  0.00  0.00  0.97  0.03  0.00  0.00  0.50  0.00
  WS02003066WSF200        1.00   0.08  0.00  0.00  0.00  0.92  0.00  0.00  0.66  0.00
  WS02003067WS02003066    1.00   0.07  0.01  0.00  0.93  0.00  0.00  0.00  0.00  0.00
  WS02003069WS02003072    1.00   0.00  0.00  0.00  1.00  0.00  0.00  0.00  0.63  0.00
  WS02003072WS02003073    1.00   0.00  0.00  0.00  0.00  0.00  0.00  1.00  0.00  0.00
  WS02004138WS02004139    1.00   0.00  0.01  0.00  0.97  0.01  0.00  0.01  0.98  0.00
  WS02004139WS02001211    1.00   0.00  0.00  0.00  0.99  0.00  0.00  0.00  0.00  0.00
  WS02004401WS02004402    1.00   0.03  0.00  0.00  0.97  0.00  0.00  0.00  0.00  0.00
  WS02004402WS02004403    1.00   0.03  0.00  0.00  0.97  0.00  0.00  0.00  0.00  0.00
  WS02004403WS02004404    1.00   0.00  0.03  0.00  0.97  0.00  0.00  0.00  0.00  0.00
  WS02004404WS02004405    1.00   0.00  0.00  0.00  1.00  0.00  0.00  0.00  0.01  0.00
  WS02004405WS02004406    1.00   0.00  0.00  0.00  1.00  0.00  0.00  0.00  0.00  0.00
  WS02004406WS02004407    1.00   0.00  0.05  0.00  0.95  0.00  0.00  0.00  0.00  0.00
  WS02004407WS02004409    1.00   0.05  0.00  0.00  0.93  0.01  0.00  0.00  0.82  0.00
  WS02004409WS02004410    1.00   0.05  0.00  0.00  0.94  0.00  0.00  0.00  0.00  0.00
  WS02004410WS02004411    1.00   0.05  0.00  0.00  0.94  0.00  0.00  0.00  0.00  0.00
  WS02004411WS02004412    1.00   0.06  0.00  0.00  0.94  0.00  0.00  0.00  0.00  0.00
  WS02004412WS02004413    1.00   0.06  0.00  0.00  0.94  0.00  0.00  0.00  0.00  0.00
  WS02004413WS02003067    1.00   0.06  0.01  0.00  0.00  0.00  0.93  0.00  0.00  0.00
  WS02006109WS02006110    1.00   0.00  0.01  0.00  0.98  0.00  0.01  0.00  0.00  0.00
  WS02006110WS02006113    1.00   0.01  0.01  0.00  0.98  0.00  0.00  0.00  0.00  0.00
  WS02006111WS02006112    1.00   0.02  0.00  0.00  0.97  0.00  0.00  0.00  0.75  0.00
  WS02006112WS02006115    1.00   0.02  0.00  0.00  0.97  0.00  0.01  0.00  0.00  0.00
  WS02006113WS02006111    1.00   0.02  0.00  0.00  0.36  0.62  0.00  0.00  0.07  0.00
  WS02006115WS02006116    1.00   0.02  0.00  0.00  0.96  0.00  0.00  0.01  0.00  0.00
  WS02006116WS02004401    1.00   0.02  0.00  0.00  0.97  0.00  0.00  0.00  0.00  0.00
  WS02006228WS02006109    1.00   0.00  0.00  0.00  1.00  0.00  0.00  0.00  0.00  0.00
  WS02006229WS02006228    1.00   0.00  0.00  0.00  0.99  0.00  0.00  0.01  0.00  0.00
  WS02006230WS02006229    1.00   0.00  0.00  0.00  0.99  0.00  0.00  0.01  0.03  0.00
  WS02006231WS02006230    1.00   0.00  0.00  0.00  0.57  0.00  0.43  0.00  0.00  0.00
  WS02006232WS02006231    1.00   0.00  0.00  0.00  0.99  0.00  0.00  0.00  0.00  0.00
  WS02006234WS02006232    1.00   0.00  0.00  0.00  1.00  0.00  0.00  0.00  0.07  0.00
  WS02006235WS02006234    1.00   0.00  0.00  0.00  0.83  0.00  0.17  0.00  0.00  0.00
  WS02006238WS02006235    1.00   0.00  0.00  0.00  1.00  0.00  0.00  0.00  0.01  0.00
  WS02006239WS02006238    1.00   0.00  0.00  0.00  1.00  0.00  0.00  0.00  0.21  0.00
  WS02006240WS02006239    1.00   0.00  0.00  0.00  0.76  0.00  0.00  0.24  0.03  0.00
  WS02006242WS02006240    1.00   0.00  0.00  0.00  0.99  0.00  0.01  0.00  0.00  0.00
  WS02006243WS02006242    1.00   0.00  0.00  0.00  0.99  0.00  0.00  0.00  0.62  0.00
  WS02006245WS02006243    1.00   0.00  0.00  0.00  0.91  0.00  0.00  0.08  0.00  0.00
  WS02006247WS02006245    1.00   0.00  0.00  0.00  0.99  0.00  0.00  0.01  0.00  0.00
  WS02006248WS02006247    1.00   0.00  0.00  0.00  1.00  0.00  0.00  0.00  0.60  0.00
  WS02006249WS02006248    1.00   0.00  0.00  0.00  0.61  0.00  0.39  0.00  0.00  0.00
  WS02006251WS02006249    1.00   0.00  0.00  0.00  1.00  0.00  0.00  0.00  0.61  0.00
  WS02006252WS02006251    1.00   0.00  0.00  0.00  0.46  0.00  0.54  0.00  0.00  0.00
  WS02006253WS02006251    1.00   0.00  0.00  0.00  0.98  0.00  0.02  0.00  0.00  0.00
  WS02006256WS02006235    1.00   0.00  0.00  0.00  0.99  0.01  0.00  0.00  0.01  0.00
  WS02006280WS02006229    1.00   0.13  0.00  0.00  0.32  0.04  0.00  0.51  0.01  0.00
  WS02006284WS02006280    1.00   0.13  0.00  0.00  0.23  0.02  0.00  0.62  0.00  0.00
  WS02006287WS02006284    1.00   0.12  0.02  0.00  0.50  0.36  0.00  0.00  0.66  0.00
  WSF200WS02003060        1.00   0.00  0.08  0.00  0.43  0.50  0.00  0.00  0.63  0.00
  YS02001580YS02001583    1.00   0.22  0.37  0.00  0.41  0.00  0.00  0.00  0.65  0.00
  YS02001583YS02001586    1.00   0.29  0.25  0.00  0.46  0.00  0.00  0.00  0.65  0.00
  YS02001586YS02001590    1.00   0.13  0.00  0.00  0.63  0.02  0.00  0.22  0.35  0.00
  YS02001590YS02001593    1.00   0.13  0.00  0.00  0.30  0.00  0.57  0.00  0.00  0.00
  YS02001593YS02001596    1.00   0.13  0.00  0.00  0.33  0.01  0.00  0.53  0.02  0.00
  YS02001596YS02001600    1.00   0.13  0.00  0.00  0.41  0.02  0.00  0.44  0.04  0.00
  YS02001600YS02001601    1.00   0.13  0.00  0.00  0.87  0.00  0.00  0.00  0.58  0.00
  YS02001601YS02001602    1.00   0.13  0.00  0.00  0.87  0.00  0.00  0.00  0.00  0.00
  YS02001602YS02001605    1.00   0.13  0.00  0.00  0.87  0.00  0.00  0.00  0.00  0.00
  YS02001605YS02001607    1.00   0.13  0.00  0.00  0.87  0.00  0.00  0.00  0.00  0.00
  YS02001607YS02001610    1.00   0.13  0.00  0.00  0.87  0.00  0.00  0.00  0.01  0.00
  YS02001610YS02001613    1.00   0.13  0.00  0.00  0.87  0.00  0.00  0.00  0.00  0.00
  YS02001613YS02001616    1.00   0.13  0.00  0.00  0.87  0.00  0.00  0.00  0.00  0.00
  YS02001616YS02001619    1.00   0.13  0.00  0.00  0.87  0.00  0.00  0.00  0.00  0.00
  YS02001619YS02001622    1.00   0.13  0.00  0.00  0.87  0.00  0.00  0.00  0.27  0.00
  YS02001622YS02001625    1.00   0.13  0.00  0.00  0.87  0.00  0.00  0.00  0.03  0.00
  YS02001625YS02001629    1.00   0.13  0.02  0.00  0.35  0.00  0.50  0.00  0.00  0.00
  YS02001629YS02163301    1.00   0.14  0.00  0.00  0.86  0.00  0.00  0.00  0.00  0.00
  YS02001633YS02163601    1.00   0.00  0.01  0.00  0.99  0.00  0.00  0.00  0.14  0.00
  YS02001641YS02001644    1.00   0.00  0.00  0.00  1.00  0.00  0.00  0.00  0.00  0.00
  YS02001644YS02001647    1.00   0.00  0.14  0.00  0.86  0.00  0.00  0.00  0.00  0.00
  YS02001647YS02001649    1.00   0.00  0.14  0.00  0.56  0.30  0.00  0.00  0.55  0.00
  YS02001649YS02001757    1.00   0.00  0.00  0.00  0.77  0.23  0.00  0.00  0.57  0.00
  YS02001652YS02001649    1.00   0.00  0.00  0.00  0.99  0.01  0.00  0.00  0.71  0.00
  YS02001655YS02001652    1.00   0.00  0.00  0.00  0.39  0.02  0.00  0.59  0.08  0.00
  YS02001658YS02001655    1.00   0.00  0.13  0.00  0.58  0.29  0.00  0.00  0.68  0.00
  YS02001661YS02001658    1.00   0.13  0.00  0.00  0.40  0.47  0.00  0.00  0.71  0.00
  YS02001664YS02001661    1.00   0.13  0.00  0.00  0.59  0.28  0.00  0.00  0.84  0.00
  YS02001745YS02001748    1.00   0.00  0.00  0.00  0.15  0.02  0.00  0.82  0.04  0.00
  YS02001748YS02001751    1.00   0.00  0.00  0.00  0.73  0.27  0.00  0.00  0.79  0.00
  YS02001751YS02001754    1.00   0.00  0.00  0.00  0.30  0.02  0.00  0.68  0.04  0.00
  YS02001754YS02001757    1.00   0.00  0.00  0.00  1.00  0.00  0.00  0.00  0.81  0.00
  YS02001757CaochengTiaoxuchi    1.00   0.00  0.00  0.00  0.45  0.55  0.00  0.00  0.36  0.00
  YS02001759YS02001757    1.00   0.00  0.00  0.00  1.00  0.00  0.00  0.00  0.63  0.00
  YS02001762YS02001759    1.00   0.00  0.00  0.00  1.00  0.00  0.00  0.00  0.04  0.00
  YS02001765YS02001762    1.00   0.00  0.00  0.00  1.00  0.00  0.00  0.00  0.71  0.00
  YS02001767YS02001765    1.00   0.00  0.00  0.00  1.00  0.00  0.00  0.00  0.00  0.00
  YS02001770YS02001767    1.00   0.00  0.00  0.00  1.00  0.00  0.00  0.00  0.00  0.00
  YS02001774YS02001770    1.00   0.00  0.13  0.00  0.78  0.00  0.09  0.00  0.02  0.00
  YS02001779YS02001774    1.00   0.00  0.00  0.00  1.00  0.00  0.00  0.00  0.76  0.00
  YS02001783YS02001784    1.00   0.00  0.15  0.00  0.85  0.00  0.00  0.00  0.55  0.00
  YS02001784YS02001785    1.00   0.00  0.00  0.00  1.00  0.00  0.00  0.00  0.15  0.00
  YS02001786YS02001788    1.00   0.00  0.00  0.00  0.67  0.33  0.00  0.00  0.00  0.00
  YS02001788YS02001790    1.00   0.00  0.00  0.00  0.22  0.78  0.00  0.00  0.78  0.00
  YS02001790YS02001791    1.00   0.00  0.00  0.00  0.01  0.99  0.00  0.00  0.15  0.00
  YS02001791YS02001793    1.00   0.00  0.00  0.00  0.00  1.00  0.00  0.00  0.01  0.00
  YS02001793JiankangQianchi    1.00   0.00  0.00  0.00  0.11  0.89  0.00  0.00  0.58  0.00
  YS02001882YS02001884    1.00   0.14  0.00  0.00  0.86  0.00  0.00  0.00  0.00  0.00
  YS02001884YS02001887    1.00   0.09  0.03  0.00  0.88  0.00  0.00  0.00  0.00  0.00
  YS02001887YS02001890    1.00   0.00  0.00  0.00  0.96  0.00  0.04  0.00  0.00  0.00
  YS02001890YS02001895    1.00   0.00  0.14  0.00  0.86  0.00  0.00  0.00  0.00  0.00
  YS02001895YS02001898    1.00   0.14  0.00  0.00  0.85  0.00  0.01  0.00  0.00  0.00
  YS02001898YS02001901    1.00   0.14  0.00  0.00  0.86  0.00  0.00  0.00  0.01  0.00
  YS02001901YS02001904    1.00   0.14  0.00  0.00  0.86  0.00  0.00  0.00  0.00  0.00
  YS02001904YS02001907    1.00   0.00  0.14  0.00  0.86  0.00  0.00  0.00  0.00  0.00
  YS02001907YS02006553    1.00   0.00  0.02  0.00  0.97  0.00  0.00  0.00  0.00  0.00
  YS02001910YS02001907    1.00   0.00  0.00  0.00  0.96  0.01  0.00  0.03  0.12  0.00
  YS02001915YS02001910    1.00   0.00  0.00  0.00  0.97  0.03  0.00  0.00  0.13  0.00
  YS02001918YS02001915    1.00   0.00  0.00  0.00  0.97  0.02  0.00  0.00  0.71  0.00
  YS02001920YS02001918    1.00   0.00  0.00  0.00  1.00  0.00  0.00  0.00  0.00  0.00
  YS02001923YS02001920    1.00   0.00  0.00  0.00  1.00  0.00  0.00  0.00  0.89  0.00
  YS02001926YS02001923    1.00   0.00  0.10  0.00  0.17  0.00  0.74  0.00  0.00  0.00
  YS02001929YS02001926    1.00   0.00  0.13  0.00  0.87  0.00  0.00  0.00  0.80  0.00
  YS02006553YS02006556    1.00   0.01  0.00  0.00  0.99  0.00  0.00  0.00  0.03  0.00
  YS02006556YS02006558    1.00   0.00  0.00  0.00  1.00  0.00  0.00  0.00  0.00  0.00
  YS02006558YS02006561    1.00   0.14  0.00  0.00  0.16  0.70  0.00  0.00  0.17  0.00
  YS02006561YS02001783    1.00   0.15  0.00  0.00  0.23  0.62  0.00  0.00  0.65  0.00
  YS02163301YS02001633    1.00   0.00  0.13  0.00  0.87  0.00  0.00  0.00  0.00  0.00
  YS02163601YS02164001    1.00   0.00  0.10  0.00  0.90  0.00  0.00  0.00  0.00  0.00
  YS02164001YS02001641    1.00   0.01  0.10  0.00  0.90  0.00  0.00  0.00  0.05  0.00
  YSB1154YSB6556          1.00   0.13  0.00  0.00  0.87  0.00  0.00  0.00  0.02  0.00
  YSB1171HS02004479       1.00   0.06  0.00  0.00  0.92  0.00  0.00  0.02  0.10  0.00
  YSB1174YSB1171          1.00   0.08  0.03  0.00  0.89  0.00  0.00  0.00  0.00  0.00
  YSB6556YSB1171          1.00   0.06  0.07  0.00  0.87  0.00  0.00  0.00  0.00  0.00
  
  
  *************************
  Conduit Surcharge Summary
  *************************
  
  ----------------------------------------------------------------------------
                                                           Hours        Hours 
                         --------- Hours Full --------   Above Full   Capacity
  Conduit                Both Ends  Upstream  Dnstream   Normal Flow   Limited
  ----------------------------------------------------------------------------
  HS02004478WS02006287        0.59      0.59      0.77      0.01         0.01
  HS02004479HS02004480        0.77      0.77      0.80      0.01         0.01
  HS02004480HS02004478        0.71      0.77      0.71      1.76         0.71
  HS02004770HS02004777        0.67      0.67      0.67      0.11         0.07
  HS02004777HS02004785        0.62      0.62      0.67      0.01         0.01
  HS02004785HS02004788        0.61      0.62      0.61      1.55         0.52
  HS02004788HS02004792        0.61      0.61      0.74      0.01         0.01
  HS02004792HS02004799        0.74      0.74      0.87      0.01         0.01
  HS02004799HS02004480        0.77      0.77      0.87      0.98         0.01
  HS02004802HS02004478        0.72      0.72      0.79      0.19         0.01
  HS02004807HS02004802        0.76      0.76      0.78      0.34         0.35
  HS02004817HS02004807        0.76      0.76      1.40      0.01         0.01
  HS02004817HS02004824        0.61      0.61      1.40      0.01         0.01
  HS02004824HS02004830        0.59      0.59      0.61      0.01         0.01
  HS02004830HS02004837        0.54      0.54      0.59      0.01         0.01
  HS02004837HS02004842        0.54      0.54      0.69      0.01         0.01
  HS02004842HS02004848        0.51      0.51      0.69      0.01         0.01
  HS02004848HS02004852        0.51      0.51      0.53      0.02         0.01
  HS02004852HS02004856        0.53      0.53      0.55      0.01         0.01
  HS02004856HS02004862        0.52      0.52      0.56      0.01         0.01
  HS02004862HS02004870        0.56      0.56      0.58      0.23         0.23
  HS02004870HS02004876        0.58      0.58      0.66      0.01         0.01
  HS02004876HS02004881        0.64      0.66      0.64      1.58         0.64
  HS02004881HS02006253        0.64      0.64      2.04      0.01         0.01
  HS02004901HS02004770        0.67      0.67      0.68      0.03         0.01
  WS02003072WS02003073        0.01      0.01      0.01      2.48         0.01
  WS02004401WS02004402        1.66      1.66      1.69      1.50         1.47
  WS02004402WS02004403        1.69      1.69      1.70      1.67         1.65
  WS02004403WS02004404        1.70      1.70      1.87      0.01         0.04
  WS02004404WS02004405        1.83      1.87      1.83      3.18         1.83
  WS02004405WS02004406        1.80      1.83      1.80      2.14         1.79
  WS02004406WS02004407        0.01      0.01      1.80      0.01         0.01
  WS02004407WS02004409        0.01      0.01      1.13      0.01         0.01
  WS02004409WS02004410        1.08      1.13      1.08      1.57         1.08
  WS02004410WS02004411        0.99      1.08      0.99      1.62         0.99
  WS02004411WS02004412        0.89      0.99      0.89      1.65         0.89
  WS02004412WS02004413        0.89      0.89      1.43      0.01         0.01
  WS02004413WS02003067        0.01      0.01      1.43      0.01         0.01
  WS02006109WS02006110        2.13      2.13      2.42      2.13         0.01
  WS02006110WS02006113        1.42      1.42      2.38      0.34         0.01
  WS02006111WS02006112        1.40      1.40      2.50      0.01         0.01
  WS02006112WS02006115        1.57      1.57      2.15      0.01         0.01
  WS02006113WS02006111        1.41      1.42      1.41      1.51         1.41
  WS02006115WS02006116        1.58      1.59      1.59      1.57         1.54
  WS02006116WS02004401        1.66      1.66      1.66      1.64         1.61
  WS02006228WS02006109        2.32      2.42      2.32      2.75         2.32
  WS02006229WS02006228        2.30      2.36      2.30      2.60         2.30
  WS02006230WS02006229        2.50      2.53      2.50      3.27         1.16
  WS02006231WS02006230        1.91      1.91      2.12      2.82         1.26
  WS02006232WS02006231        2.12      2.12      2.34      0.01         0.17
  WS02006234WS02006232        2.14      2.14      2.34      0.01         0.05
  WS02006235WS02006234        2.14      2.14      2.23      2.61         1.20
  WS02006238WS02006235        2.25      2.25      2.34      0.01         0.19
  WS02006239WS02006238        2.28      2.32      2.28      1.79         0.72
  WS02006240WS02006239        2.23      2.25      2.23      1.77         0.65
  WS02006242WS02006240        2.24      2.24      2.39      1.97         0.96
  WS02006243WS02006242        2.27      2.27      2.36      0.01         0.02
  WS02006245WS02006243        2.25      2.26      2.25      0.86         0.62
  WS02006247WS02006245        2.25      2.30      2.25      2.38         0.97
  WS02006248WS02006247        2.25      2.25      2.28      0.02         0.07
  WS02006249WS02006248        2.23      2.23      2.27      1.15         0.03
  WS02006251WS02006249        2.27      2.30      2.27      2.44         2.20
  WS02006252WS02006251        2.50      2.50      2.50      2.16         0.12
  WS02006253WS02006251        2.29      2.29      2.33      0.91         0.02
  WS02006256WS02006235        2.84      2.91      6.11      0.14         0.16
  WS02006280WS02006229        0.90      0.90      1.02      0.01         0.01
  WS02006284WS02006280        0.80      0.80      0.88      0.01         0.01
  WS02006287WS02006284        0.70      0.70      0.81      0.38         0.39
  YS02001580YS02001583        0.87      0.87      0.90      0.01         0.01
  YS02001583YS02001586        0.88      0.88      0.99      0.01         0.01
  YS02001586YS02001590        1.00      1.00      1.08      0.01         0.01
  YS02001590YS02001593        1.08      1.08      1.11      1.19         0.01
  YS02001593YS02001596        1.10      1.10      1.22      0.01         0.01
  YS02001596YS02001600        1.29      1.29      1.41      0.01         0.01
  YS02001600YS02001601        1.46      1.46      1.70      0.01         0.01
  YS02001601YS02001602        1.61      1.61      1.74      1.44         0.01
  YS02001602YS02001605        1.56      1.56      1.61      2.47         0.01
  YS02001605YS02001607        1.52      1.56      1.52      1.67         1.52
  YS02001607YS02001610        1.00      1.00      1.04      0.01         0.01
  YS02001610YS02001613        0.99      0.99      1.04      0.01         0.01
  YS02001613YS02001616        0.94      0.94      0.99      0.01         0.01
  YS02001616YS02001619        0.92      0.92      0.94      0.13         0.11
  YS02001619YS02001622        0.91      0.92      0.91      1.14         0.89
  YS02001622YS02001625        0.91      0.91      1.15      0.01         0.01
  YS02001625YS02001629        0.81      0.81      1.15      0.01         0.01
  YS02001629YS02163301        1.12      1.12      1.13      0.47         0.44
  YS02001633YS02163601        1.16      1.16      1.20      0.64         0.63
  YS02001641YS02001644        0.95      1.01      0.95      1.76         0.94
  YS02001644YS02001647        0.66      0.66      0.95      0.04         0.01
  YS02001647YS02001649        0.66      0.66      0.75      0.01         0.01
  YS02001649YS02001757        0.74      0.75      0.75      0.52         0.44
  YS02001652YS02001649        0.56      0.56      0.75      0.01         0.01
  YS02001655YS02001652        0.39      0.39      0.53      0.01         0.01
  YS02001658YS02001655        0.29      0.29      0.39      0.01         0.01
  YS02001661YS02001658        0.13      0.13      0.29      0.01         0.01
  YS02001664YS02001661        0.01      0.01      0.17      0.01         0.01
  YS02001745YS02001748        0.01      0.01      0.20      0.01         0.01
  YS02001748YS02001751        0.26      0.26      0.32      0.01         0.01
  YS02001751YS02001754        0.32      0.32      0.39      0.01         0.01
  YS02001754YS02001757        0.41      0.41      0.75      0.01         0.01
  YS02001757CaochengTiaoxuchi        0.30      0.75      0.82      0.66         0.16
  YS02001759YS02001757        0.65      0.65      0.75      0.13         0.15
  YS02001762YS02001759        0.62      0.62      0.65      0.01         0.03
  YS02001765YS02001762        0.57      0.57      0.62      0.01         0.01
  YS02001767YS02001765        0.54      0.54      0.57      0.02         0.06
  YS02001770YS02001767        0.54      0.55      0.54      0.78         0.52
  YS02001774YS02001770        0.52      0.52      0.61      0.01         0.01
  YS02001779YS02001774        0.41      0.41      0.61      0.01         0.01
  YS02001783YS02001784        0.71      0.74      0.71      0.93         0.71
  YS02001784YS02001785        0.59      0.71      0.59      1.25         0.59
  YS02001786YS02001788        0.01      0.59      0.01      1.06         0.01
  YS02001790YS02001791        0.01      0.01      0.01      0.70         0.01
  YS02001882YS02001884        0.68      0.68      0.69      0.01         0.01
  YS02001884YS02001887        0.72      0.72      0.73      0.01         0.01
  YS02001887YS02001890        0.75      0.75      0.76      0.21         0.01
  YS02001890YS02001895        0.66      0.66      0.78      0.01         0.01
  YS02001895YS02001898        0.65      0.65      0.66      0.01         0.01
  YS02001898YS02001901        0.67      0.67      0.72      0.01         0.01
  YS02001901YS02001904        0.70      0.70      0.72      0.01         0.01
  YS02001904YS02001907        0.70      0.70      1.04      0.01         0.01
  YS02001907YS02006553        1.26      1.26      1.35      0.01         0.01
  YS02001910YS02001907        0.78      0.78      1.01      0.10         0.10
  YS02001915YS02001910        0.67      0.67      0.78      0.01         0.01
  YS02001918YS02001915        0.57      0.57      0.67      0.01         0.01
  YS02001920YS02001918        0.57      0.57      0.59      0.01         0.01
  YS02001923YS02001920        0.52      0.52      0.59      0.01         0.01
  YS02001926YS02001923        0.24      0.24      0.27      0.01         0.01
  YS02001929YS02001926        0.12      0.12      0.27      0.01         0.01
  YS02006553YS02006556        0.90      0.90      1.04      0.01         0.01
  YS02006556YS02006558        0.96      0.96      1.06      0.01         0.01
  YS02006558YS02006561        0.61      0.88      0.61      1.19         0.61
  YS02006561YS02001783        0.54      0.54      0.74      0.01         0.01
  YS02163301YS02001633        1.13      1.13      1.19      0.01         0.01
  YS02163601YS02164001        1.04      1.04      1.20      0.37         0.01
  YS02164001YS02001641        1.01      1.04      1.01      0.96         0.75
  YSB1154YSB6556              0.84      0.84      1.01      0.01         0.01
  YSB1171HS02004479           0.73      0.73      1.01      0.01         0.01
  YSB1174YSB1171              0.91      0.91      1.30      0.01         0.01
  YSB6556YSB1171              0.84      0.84      1.47      0.01         0.01
  
  
  ***************
  Pumping Summary
  ***************
  
  ---------------------------------------------------------------------------------------------------------
                                                  Min       Avg       Max     Total     Power    % Time Off
                        Percent   Number of      Flow      Flow      Flow    Volume     Usage    Pump Curve
  Pump                 Utilized   Start-Ups       LPS       LPS       LPS  10^6 ltr     Kw-hr    Low   High
  ---------------------------------------------------------------------------------------------------------
  CC-R1                   31.23           4      0.00    683.00    683.00     6.144    103.22    0.0   67.1
  CC-R2                   31.23           4      0.00    683.00    683.00     6.144    103.22    0.0   67.1
  CC-S1                   31.23           4      0.00    200.00    200.00     1.799     14.78    0.0   27.9
  CC-S2                   31.23           4      0.00    200.00    200.00     1.799     14.78    0.0   27.9
  JK-R1                    9.00         435      0.00    990.90   1000.00     2.545      6.19    0.0    0.0
  JK-R2                    9.00         435      0.00    990.90   1000.00     2.545      6.19    0.0    0.0
  JK-S                     9.00         435      0.00    299.82    300.00     0.776     17.74    0.0    0.0
  XR-1                    97.91           2      0.00     95.00     95.00     2.679      9.63    0.0    0.0
  XR-2                    93.94           2      0.00     95.00     95.00     2.570      8.78    0.0    0.0
  XR-3                     0.00           1      0.00     95.00     95.00     0.000      0.00    0.0    0.0
  XR-4                     0.00           1      0.00     95.00     95.00     0.000      0.00    0.0    0.0
  

  Analysis begun on:  Tue Jun 20 17:12:58 2023
  Analysis ended on:  Tue Jun 20 17:13:04 2023
  Total elapsed time: 00:00:06