
  OWA STORM WATER MANAGEMENT MODEL - VERSION v5.1.14 (OWA 2022-07-31)
  --------------------------------------------------------------

  WARNING 04: minimum elevation drop used for Conduit WS02004404WS02004405
  WARNING 03: negative offset ignored for Link YS02001904YS02001907
  
  *********************************************************
  NOTE: The summary statistics displayed in this report are
  based on results found at every computational time step,  
  not just on results from each reporting time step.
  *********************************************************
  
  ****************
  Analysis Options
  ****************
  Flow Units ............... LPS
  Process Models:
    Rainfall/Runoff ........ YES
    RDII ................... NO
    Snowmelt ............... NO
    Groundwater ............ NO
    Flow Routing ........... YES
    Ponding Allowed ........ NO
    Water Quality .......... NO
  Infiltration Method ...... HORTON
  Flow Routing Method ...... DYNWAVE
  Surcharge Method ......... EXTRAN
  Starting Date ............ 08/28/2015 08:00:00
  Ending Date .............. 08/28/2015 16:00:00
  Antecedent Dry Days ...... 8.0
  Report Time Step ......... 00:01:00
  Wet Time Step ............ 00:01:00
  Dry Time Step ............ 00:01:00
  Routing Time Step ........ 30.00 sec
  Variable Time Step ....... YES
  Maximum Trials ........... 8
  Number of Threads ........ 2
  Head Tolerance ........... 0.001500 m
  
  
  **************************        Volume         Depth
  Runoff Quantity Continuity     hectare-m            mm
  **************************     ---------       -------
  Initial LID Storage ......         0.072         1.184
  Total Precipitation ......         2.627        43.363
  Evaporation Loss .........         0.000         0.000
  Infiltration Loss ........         0.195         3.212
  Surface Runoff ...........         1.942        32.060
  Final Storage ............         0.564         9.303
  Continuity Error (%) .....        -0.061
  
  
  **************************        Volume        Volume
  Flow Routing Continuity        hectare-m      10^6 ltr
  **************************     ---------     ---------
  Dry Weather Inflow .......         0.630         6.296
  Wet Weather Inflow .......         1.942        19.421
  Groundwater Inflow .......         0.000         0.000
  RDII Inflow ..............         0.000         0.000
  External Inflow ..........         0.105         1.045
  External Outflow .........         1.790        17.898
  Flooding Loss ............         0.677         6.774
  Evaporation Loss .........         0.000         0.000
  Exfiltration Loss ........         0.000         0.000
  Initial Stored Volume ....         0.303         3.031
  Final Stored Volume ......         0.515         5.151
  Continuity Error (%) .....        -0.099
  
  
  *************************
  Highest Continuity Errors
  *************************
  Node YS02001583 (-5.84%)
  Node YS02001884 (5.28%)
  Node YS02001774 (4.36%)
  Node HS02004842 (2.21%)
  Node HS02004817 (1.46%)
  
  
  ***************************
  Time-Step Critical Elements
  ***************************
  Link WS02006252WS02006251 (66.01%)
  Link WS02006280WS02006229 (18.14%)
  Link WS02006238WS02006235 (5.31%)
  Link YS02001791YS02001793 (3.12%)
  
  
  ********************************
  Highest Flow Instability Indexes
  ********************************
  Link WS02006113WS02006111 (22)
  Link WS02006256WS02006235 (11)
  Link WS02004404WS02004405 (10)
  Link WS02006111WS02006112 (10)
  Link WS02006238WS02006235 (10)
  
  
  *************************
  Routing Time Step Summary
  *************************
  Minimum Time Step           :     0.01 sec
  Average Time Step           :     2.00 sec
  Maximum Time Step           :     6.46 sec
  Percent in Steady State     :    -0.00
  Average Iterations per Step :     2.71
  Percent Not Converging      :     6.98
  
  
  ***************************
  Subcatchment Runoff Summary
  ***************************
  
  ------------------------------------------------------------------------------------------------------------------------------
                            Total      Total      Total      Total     Imperv       Perv      Total       Total     Peak  Runoff
                           Precip      Runon       Evap      Infil     Runoff     Runoff     Runoff      Runoff   Runoff   Coeff
  Subcatchment                 mm         mm         mm         mm         mm         mm         mm    10^6 ltr      LPS
  ------------------------------------------------------------------------------------------------------------------------------
  sub0                      43.36       0.00       0.00       0.94      39.08       2.10      41.18        0.03    28.41   0.950
  sub1                      43.36       0.00       0.00       1.43      33.48       2.85      36.32        0.24   174.33   0.838
  sub10                     43.36       0.00       0.00       0.91      31.38       1.91      33.29        0.37   275.58   0.768
  sub11                     43.36       0.00       0.00       0.83      29.16       1.79      30.96        0.36   287.27   0.714
  sub12                     43.36       0.00       0.00       1.45      29.65       3.13      32.78        0.29   243.68   0.756
  sub14                     43.36       0.00       0.00       0.90      27.62       1.92      29.54        0.28   221.49   0.681
  sub15                     43.36       0.00       0.00       4.17      24.83       6.83      31.65        0.54   387.43   0.730
  sub16                     43.36       0.00       0.00       4.40      24.22       7.92      32.14        0.34   265.68   0.741
  sub17                     43.36       0.00       0.00       4.72      26.73       8.27      35.00        0.30   230.26   0.807
  sub2                      43.36       0.00       0.00       6.58      24.46       8.28      32.74        0.31   180.04   0.755
  sub22                     43.36       0.00       0.00       7.40      23.18      10.66      33.84        2.14  1424.69   0.780
  sub23                     43.36       0.00       0.00       5.56      23.87       8.92      32.79        1.56  1127.09   0.756
  sub3                      43.36       0.00       0.00       7.01      24.22       7.71      31.93        0.72   384.36   0.736
  sub4                      43.36       0.00       0.00       1.58      32.93       2.64      35.57        0.74   416.57   0.820
  sub5                      43.36       0.00       0.00       0.81      32.39       1.71      34.10        0.39   283.26   0.786
  sub60                     43.36       0.00       0.00       1.29      28.53       2.72      31.25        0.41   331.83   0.721
  sub61                     43.36       0.00       0.00       1.99      28.50       4.04      32.54        0.60   483.46   0.750
  sub62                     43.36       0.00       0.00       0.88      30.38       1.85      32.23        0.88   658.14   0.743
  sub63                     43.36       0.00       0.00       3.69      24.41       6.61      31.02        0.70   543.59   0.715
  sub64                     43.36       0.00       0.00       1.76      27.79       3.30      31.09        0.75   531.13   0.717
  sub65                     43.36       0.00       0.00       1.62      29.98       3.01      33.00        0.91   615.86   0.761
  sub66                     43.36       0.00       0.00       4.34      23.58       5.64      29.22        1.36   785.54   0.674
  sub67                     43.36       0.00       0.00       0.87      31.15       1.93      33.08        0.62   515.20   0.763
  sub68                     43.36       0.00       0.00       1.53      27.51       3.10      30.60        0.84   658.01   0.706
  sub69                     43.36       0.00       0.00       1.39      29.13       3.76      32.90        1.22   797.80   0.759
  sub7                      43.36       0.00       0.00       0.95      29.61       2.07      31.68        0.11    86.76   0.730
  sub70                     43.36       0.00       0.00       4.73      23.32       7.34      30.66        0.89   451.77   0.707
  sub71                     43.36       0.00       0.00       0.81      27.59       1.67      29.26        0.77   538.13   0.675
  sub72                     43.36       0.00       0.00       0.78      29.79       1.54      31.33        0.43   273.96   0.723
  sub8                      43.36       0.00       0.00       0.93      28.77       2.00      30.77        0.20   155.73   0.710
  sub9                      43.36       0.00       0.00       0.91      27.89       1.94      29.83        0.14   113.45   0.688
  

  ***********************
  LID Performance Summary
  ***********************

  --------------------------------------------------------------------------------------------------------------------
                                         Total      Evap     Infil   Surface    Drain    Initial     Final  Continuity
                                        Inflow      Loss      Loss   Outflow   Outflow   Storage   Storage       Error
  Subcatchment      LID Control             mm        mm        mm        mm        mm        mm        mm           %
  --------------------------------------------------------------------------------------------------------------------
  sub1              GreenRoof            43.36      0.00      0.00      0.00      0.00      7.05     50.52       -0.21
  sub10             GreenRoof            43.36      0.00      0.00      0.00      0.00      7.05     50.52       -0.21
  sub11             GreenRoof            43.36      0.00      0.00      0.00      0.00      7.05     50.52       -0.21
  sub12             GreenRoof            43.36      0.00      0.00      0.00      0.00      7.05     50.52       -0.21
  sub14             GreenRoof            43.36      0.00      0.00      0.00      0.00      7.05     50.52       -0.21
  sub15             GreenRoof            43.36      0.00      0.00      0.00      0.00      7.05     50.52       -0.21
  sub16             GreenRoof            43.36      0.00      0.00      0.00      0.00      7.05     50.52       -0.21
  sub17             GreenRoof            43.36      0.00      0.00      0.00      0.00      7.05     50.52       -0.21
  sub2              GreenRoof            43.36      0.00      0.00      0.00      0.00      7.05     50.52       -0.21
  sub22             GreenRoof            43.36      0.00      0.00      0.00      0.00      7.05     50.52       -0.21
  sub23             GreenRoof            43.36      0.00      0.00      0.00      0.00      7.05     50.52       -0.21
  sub3              GreenRoof            43.36      0.00      0.00      0.00      0.00      7.05     50.52       -0.21
  sub4              GreenRoof            43.36      0.00      0.00      0.00      0.00      7.05     50.52       -0.21
  sub5              GreenRoof            43.36      0.00      0.00      0.00      0.00      7.05     50.52       -0.21
  sub60             GreenRoof            43.36      0.00      0.00      0.00      0.00      7.05     50.52       -0.21
  sub61             GreenRoof            43.36      0.00      0.00      0.00      0.00      7.05     50.52       -0.21
  sub62             GreenRoof            43.36      0.00      0.00      0.00      0.00      7.05     50.52       -0.21
  sub63             GreenRoof            43.36      0.00      0.00      0.00      0.00      7.05     50.52       -0.21
  sub64             GreenRoof            43.36      0.00      0.00      0.00      0.00      7.05     50.52       -0.21
  sub65             GreenRoof            43.36      0.00      0.00      0.00      0.00      7.05     50.52       -0.21
  sub66             GreenRoof            43.36      0.00      0.00      0.00      0.00      7.05     50.52       -0.21
  sub67             GreenRoof            43.36      0.00      0.00      0.00      0.00      7.05     50.52       -0.21
  sub68             GreenRoof            43.36      0.00      0.00      0.00      0.00      7.05     50.52       -0.21
  sub69             GreenRoof            43.36      0.00      0.00      0.00      0.00      7.05     50.52       -0.21
  sub7              GreenRoof            43.36      0.00      0.00      0.00      0.00      7.05     50.52       -0.21
  sub70             GreenRoof            43.36      0.00      0.00      0.00      0.00      7.05     50.52       -0.21
  sub71             GreenRoof            43.36      0.00      0.00      0.00      0.00      7.05     50.52       -0.21
  sub72             GreenRoof            43.36      0.00      0.00      0.00      0.00      7.05     50.52       -0.21
  sub8              GreenRoof            43.36      0.00      0.00      0.00      0.00      7.05     50.52       -0.21
  sub9              GreenRoof            43.36      0.00      0.00      0.00      0.00      7.05     50.52       -0.21
  
  ******************
  Node Depth Summary
  ******************
  
  ---------------------------------------------------------------------------------
                                 Average  Maximum  Maximum  Time of Max    Reported
                                   Depth    Depth      HGL   Occurrence   Max Depth
  Node                 Type       Meters   Meters   Meters  days hr:min      Meters
  ---------------------------------------------------------------------------------
  HS02004478           JUNCTION     0.15     1.53    10.76     0  02:23        1.51
  HS02004479           JUNCTION     0.22     1.67    10.88     0  02:23        1.66
  HS02004480           JUNCTION     0.18     1.65    10.89     0  02:23        1.62
  HS02004770           JUNCTION     0.20     1.42    11.25     0  02:20        1.42
  HS02004777           JUNCTION     0.22     1.48    11.28     0  02:20        1.45
  HS02004785           JUNCTION     0.12     1.49    11.39     0  02:20        1.33
  HS02004788           JUNCTION     0.09     1.42    11.32     0  02:20        1.32
  HS02004792           JUNCTION     0.13     1.60    11.12     0  02:20        1.60
  HS02004799           JUNCTION     0.24     1.76    10.97     0  02:23        1.76
  HS02004802           JUNCTION     0.24     1.72    10.85     0  02:23        1.66
  HS02004807           JUNCTION     0.21     1.92    11.09     0  02:23        1.69
  HS02004817           JUNCTION     0.52     2.44    11.29     0  02:23        2.06
  HS02004824           JUNCTION     0.10     2.01    11.41     0  02:23        1.54
  HS02004830           JUNCTION     0.10     2.03    11.50     0  02:23        1.51
  HS02004837           JUNCTION     0.08     1.97    11.55     0  02:23        1.42
  HS02004842           JUNCTION     0.38     2.22    11.49     0  02:23        1.74
  HS02004848           JUNCTION     0.06     2.07    11.67     0  02:23        1.41
  HS02004852           JUNCTION     0.06     2.12    11.63     0  02:23        1.45
  HS02004856           JUNCTION     0.12     2.07    11.50     0  02:23        1.50
  HS02004862           JUNCTION     0.08     2.00    11.38     0  02:23        1.47
  HS02004870           JUNCTION     0.07     2.10    11.39     0  02:23        1.47
  HS02004876           JUNCTION     0.11     2.06    11.09     0  02:23        1.59
  HS02004881           JUNCTION     0.06     1.75    10.78     0  02:23        1.40
  HS02004901           JUNCTION     0.20     1.42    11.24     0  02:20        1.42
  WS02001211           JUNCTION     0.63     0.80     5.64     0  02:29        0.80
  WS02001212           JUNCTION     0.36     0.56     5.63     0  02:28        0.56
  WS02001213           JUNCTION     0.57     0.86     5.62     0  02:27        0.86
  WS02003059           JUNCTION     0.63     0.93     5.62     0  02:27        0.93
  WS02003060           JUNCTION     0.34     0.68     5.61     0  02:27        0.68
  WS02003066           JUNCTION     0.19     0.45     6.00     0  02:25        0.45
  WS02003067           JUNCTION     0.48     0.88     6.20     0  02:25        0.88
  WS02003069           JUNCTION     0.38     0.77     5.35     0  02:28        0.77
  WS02003072           JUNCTION     0.45     0.80     5.17     0  02:28        0.80
  WS02003073           JUNCTION     0.27     0.51     4.57     0  02:29        0.51
  WS02004138           JUNCTION     0.13     0.14     7.39     0  00:32        0.14
  WS02004139           JUNCTION     0.56     0.74     5.65     0  02:28        0.74
  WS02004401           JUNCTION     0.65     1.80     7.80     0  02:24        1.80
  WS02004402           JUNCTION     0.67     1.75     7.71     0  02:25        1.75
  WS02004403           JUNCTION     0.69     1.67     7.60     0  02:24        1.66
  WS02004404           JUNCTION     0.75     1.69     7.54     0  02:25        1.68
  WS02004405           JUNCTION     0.75     1.64     7.49     0  02:25        1.63
  WS02004406           JUNCTION     0.75     1.53     7.36     0  02:25        1.53
  WS02004407           JUNCTION     0.20     0.89     7.20     0  02:25        0.88
  WS02004409           JUNCTION     0.42     1.36     7.13     0  02:25        1.35
  WS02004410           JUNCTION     0.44     1.28     7.00     0  02:25        1.27
  WS02004411           JUNCTION     0.45     1.19     6.87     0  02:25        1.18
  WS02004412           JUNCTION     0.47     1.09     6.73     0  02:25        1.09
  WS02004413           JUNCTION     0.61     1.14     6.61     0  02:25        1.13
  WS02006109           JUNCTION     0.78     2.64     9.26     0  02:20        2.64
  WS02006110           JUNCTION     0.75     2.37     8.95     0  02:25        2.37
  WS02006111           JUNCTION     0.30     1.67     8.38     0  02:25        1.67
  WS02006112           JUNCTION     0.83     2.30     8.18     0  02:25        2.30
  WS02006113           JUNCTION     0.36     1.78     8.67     0  02:25        1.77
  WS02006115           JUNCTION     0.55     1.89     8.03     0  02:25        1.89
  WS02006116           JUNCTION     0.63     1.89     7.93     0  02:25        1.87
  WS02006228           JUNCTION     0.80     3.02     9.67     0  02:25        3.01
  WS02006229           JUNCTION     0.79     3.20     9.89     0  02:23        3.19
  WS02006230           JUNCTION     0.73     2.65     9.39     0  02:17        2.65
  WS02006231           JUNCTION     0.49     2.19     9.32     0  02:38        2.19
  WS02006232           JUNCTION     0.58     2.18     9.22     0  02:17        2.18
  WS02006234           JUNCTION     0.46     1.96     9.12     0  02:17        1.96
  WS02006235           JUNCTION     0.48     1.97     9.14     0  02:37        1.97
  WS02006238           JUNCTION     0.50     1.95     9.09     0  02:37        1.93
  WS02006239           JUNCTION     0.44     1.80     9.01     0  02:37        1.79
  WS02006240           JUNCTION     0.41     1.64     8.93     0  02:38        1.64
  WS02006242           JUNCTION     0.45     1.55     8.82     0  02:15        1.55
  WS02006243           JUNCTION     0.35     1.41     8.83     0  03:10        1.38
  WS02006245           JUNCTION     0.35     1.32     8.80     0  03:10        1.26
  WS02006247           JUNCTION     0.36     1.26     8.76     0  03:10        1.23
  WS02006248           JUNCTION     0.31     1.10     8.69     0  02:11        1.10
  WS02006249           JUNCTION     0.34     1.09     8.69     0  02:11        1.09
  WS02006251           JUNCTION     0.38     2.20     9.87     0  02:23        2.08
  WS02006252           JUNCTION     0.29     1.50     9.74     0  00:00        1.50
  WS02006253           JUNCTION     0.43     2.97    10.61     0  02:23        2.71
  WS02006256           JUNCTION     0.76     2.35     9.28     0  00:00        2.35
  WS02006280           JUNCTION     0.19     1.72     9.99     0  02:23        1.69
  WS02006284           JUNCTION     0.47     1.91    10.31     0  02:23        1.88
  WS02006287           JUNCTION     0.20     1.69    10.64     0  02:23        1.67
  WSF200               JUNCTION     0.18     0.51     5.75     0  02:25        0.51
  YS02001580           JUNCTION     0.04     1.05     9.59     0  02:20        0.77
  YS02001583           JUNCTION     0.07     1.02     9.52     0  02:20        0.82
  YS02001586           JUNCTION     0.11     1.13     9.30     0  02:20        1.13
  YS02001590           JUNCTION     0.19     1.40     9.26     0  02:20        1.37
  YS02001593           JUNCTION     0.13     1.35     9.21     0  02:37        1.35
  YS02001596           JUNCTION     0.17     1.71     9.13     0  02:37        1.71
  YS02001600           JUNCTION     0.22     1.87     9.00     0  02:20        1.87
  YS02001601           JUNCTION     0.40     2.06     8.90     0  02:18        2.06
  YS02001602           JUNCTION     0.32     1.87     8.77     0  02:20        1.87
  YS02001605           JUNCTION     0.30     1.78     8.68     0  02:20        1.77
  YS02001607           JUNCTION     0.31     1.65     8.49     0  02:30        1.64
  YS02001610           JUNCTION     0.36     1.68     8.48     0  02:20        1.68
  YS02001613           JUNCTION     0.32     1.66     8.50     0  02:23        1.65
  YS02001616           JUNCTION     0.25     1.59     8.50     0  02:22        1.57
  YS02001619           JUNCTION     0.23     1.57     8.50     0  02:23        1.57
  YS02001622           JUNCTION     0.22     1.56     8.46     0  02:23        1.55
  YS02001625           JUNCTION     0.47     1.78     8.38     0  02:20        1.78
  YS02001629           JUNCTION     0.32     1.85     8.40     0  02:20        1.85
  YS02001633           JUNCTION     0.40     2.02     8.47     0  02:24        2.02
  YS02001641           JUNCTION     0.39     1.96     8.40     0  02:24        1.96
  YS02001644           JUNCTION     0.39     1.92     8.35     0  02:24        1.92
  YS02001647           JUNCTION     0.19     1.74     8.35     0  02:24        1.69
  YS02001649           JUNCTION     0.31     1.95     8.34     0  02:25        1.86
  YS02001652           JUNCTION     0.14     1.83     8.43     0  02:25        1.67
  YS02001655           JUNCTION     0.09     1.79     8.64     0  02:24        1.44
  YS02001658           JUNCTION     0.07     1.75     8.89     0  02:24        1.17
  YS02001661           JUNCTION     0.11     1.32     8.72     0  02:25        0.93
  YS02001664           JUNCTION     0.04     0.56     8.49     0  02:25        0.55
  YS02001745           JUNCTION     0.04     0.75     8.26     0  02:24        0.73
  YS02001748           JUNCTION     0.06     1.67     8.75     0  02:24        1.14
  YS02001751           JUNCTION     0.08     1.65     8.53     0  02:24        1.31
  YS02001754           JUNCTION     0.12     1.75     8.36     0  02:24        1.56
  YS02001757           JUNCTION     0.40     1.99     8.25     0  02:24        1.88
  YS02001759           JUNCTION     0.32     1.96     8.32     0  02:24        1.85
  YS02001762           JUNCTION     0.29     1.98     8.38     0  02:24        1.84
  YS02001765           JUNCTION     0.25     1.96     8.41     0  02:24        1.81
  YS02001767           JUNCTION     0.22     1.93     8.42     0  02:24        1.81
  YS02001770           JUNCTION     0.23     1.94     8.43     0  02:24        1.90
  YS02001774           JUNCTION     0.29     1.99     8.41     0  02:24        1.97
  YS02001779           JUNCTION     0.09     1.68     8.37     0  02:23        1.68
  YS02001783           JUNCTION     0.17     1.25     7.39     0  02:23        1.24
  YS02001784           JUNCTION     0.19     1.13     7.19     0  02:23        1.11
  YS02001786           JUNCTION     0.17     0.88     6.91     0  02:23        0.87
  YS02001788           JUNCTION     0.13     0.79     6.77     0  02:43        0.79
  YS02001790           JUNCTION     0.17     1.25     6.89     0  02:41        1.25
  YS02001791           JUNCTION     0.14     1.19     6.66     0  02:43        1.18
  YS02001793           JUNCTION     0.16     1.79     6.62     0  02:42        1.78
  YS02001882           JUNCTION     0.21     1.71     8.43     0  02:23        1.62
  YS02001884           JUNCTION     0.30     1.79     8.41     0  02:23        1.71
  YS02001887           JUNCTION     0.37     1.84     8.38     0  02:23        1.80
  YS02001890           JUNCTION     0.40     1.81     8.32     0  02:23        1.81
  YS02001895           JUNCTION     0.18     1.57     8.31     0  02:24        1.56
  YS02001898           JUNCTION     0.19     1.57     8.31     0  02:24        1.57
  YS02001901           JUNCTION     0.30     1.68     8.29     0  02:24        1.68
  YS02001904           JUNCTION     0.28     1.64     8.27     0  02:23        1.63
  YS02001907           JUNCTION     0.59     1.96     8.25     0  02:23        1.96
  YS02001910           JUNCTION     0.39     1.96     8.47     0  02:24        1.84
  YS02001915           JUNCTION     0.21     1.90     8.62     0  02:24        1.69
  YS02001918           JUNCTION     0.09     1.81     8.88     0  02:24        1.39
  YS02001920           JUNCTION     0.17     2.14     9.15     0  02:24        1.48
  YS02001923           JUNCTION     0.06     2.03     9.29     0  02:24        1.23
  YS02001926           JUNCTION     0.11     1.90     9.35     0  02:24        1.09
  YS02001929           JUNCTION     0.05     1.78     9.47     0  02:24        0.89
  YS02006553           JUNCTION     0.60     1.98     8.26     0  02:23        1.97
  YS02006556           JUNCTION     0.57     1.95     8.26     0  02:23        1.94
  YS02006558           JUNCTION     0.61     2.00     8.26     0  02:24        2.00
  YS02006561           JUNCTION     0.10     0.92     7.58     0  02:23        0.91
  YS02163301           JUNCTION     0.34     1.92     8.44     0  02:24        1.92
  YS02163601           JUNCTION     0.44     2.05     8.45     0  02:24        2.05
  YS02164001           JUNCTION     0.38     1.97     8.43     0  02:24        1.96
  YSB1154              JUNCTION     0.35     1.88    10.94     0  02:23        1.86
  YSB1171              JUNCTION     0.50     1.95    10.85     0  02:23        1.95
  YSB1174              JUNCTION     0.30     1.78    10.89     0  02:23        1.77
  YSB6556              JUNCTION     0.25     1.73    10.90     0  02:23        1.71
  CC-1                 OUTFALL      0.00     0.00     0.00     0  00:00        0.00
  CC-2                 OUTFALL      0.00     0.00     0.00     0  00:00        0.00
  JK-1                 OUTFALL      0.00     0.00     0.00     0  00:00        0.00
  JK-2                 OUTFALL      0.00     0.00     0.00     0  00:00        0.00
  WSC                  OUTFALL      0.27     0.51     1.18     0  02:29        0.51
  CC-storage           STORAGE      1.05     1.55     7.05     0  02:38        1.55
  JK-storage           STORAGE      2.91     5.80     6.60     0  02:41        5.80
  XR-storage           STORAGE      7.98     9.26     7.26     0  08:00        9.26
  
  
  *******************
  Node Inflow Summary
  *******************
  
  -------------------------------------------------------------------------------------------------
                                  Maximum  Maximum                  Lateral       Total        Flow
                                  Lateral    Total  Time of Max      Inflow      Inflow     Balance
                                   Inflow   Inflow   Occurrence      Volume      Volume       Error
  Node                 Type           LPS      LPS  days hr:min    10^6 ltr    10^6 ltr     Percent
  -------------------------------------------------------------------------------------------------
  HS02004478           JUNCTION      0.00  2250.31     0  02:25           0           6      -0.009
  HS02004479           JUNCTION      0.00   450.80     0  02:23           0       0.604       0.143
  HS02004480           JUNCTION      0.00  2118.26     0  02:21           0        4.65       0.063
  HS02004770           JUNCTION   1127.09  1127.09     0  02:25        1.56        1.76       0.175
  HS02004777           JUNCTION      0.03   752.57     0  02:20    0.000864         1.4       0.373
  HS02004785           JUNCTION      0.15   768.39     0  02:19     0.00432         1.4       0.038
  HS02004788           JUNCTION    389.10   890.03     0  02:20       0.593        1.99       0.004
  HS02004792           JUNCTION   1424.97  2153.94     0  02:25        2.15        4.14       0.010
  HS02004799           JUNCTION    221.49  1776.01     0  02:21       0.281        4.06       0.066
  HS02004802           JUNCTION      0.00   745.71     0  02:25           0        1.38       0.290
  HS02004807           JUNCTION    287.27   745.78     0  02:25        0.36        1.42       0.287
  HS02004817           JUNCTION      0.60   472.00     0  02:26      0.0173        1.12       1.483
  HS02004824           JUNCTION    416.62   657.17     0  02:21       0.743        1.26       0.045
  HS02004830           JUNCTION      0.15   661.49     0  02:20     0.00432       0.667       0.183
  HS02004837           JUNCTION    281.93   839.72     0  02:21        0.55       0.896       0.052
  HS02004842           JUNCTION      0.00   840.48     0  02:21           0        0.58       2.261
  HS02004848           JUNCTION    384.36  1087.43     0  02:22       0.719        1.15      -0.026
  HS02004852           JUNCTION      0.00  1085.88     0  02:23           0        1.01       0.013
  HS02004856           JUNCTION    113.45  1188.19     0  02:23       0.143        1.16       0.060
  HS02004862           JUNCTION    180.24  1242.53     0  02:23       0.311        1.47      -0.018
  HS02004870           JUNCTION    155.73  1339.22     0  02:23       0.197        1.66       0.000
  HS02004876           JUNCTION    174.33  1343.31     0  02:23       0.242         1.9       0.048
  HS02004881           JUNCTION     86.76  1424.69     0  02:23       0.107        2.01       0.033
  HS02004901           JUNCTION    265.68   480.50     0  02:26       0.337       0.469       0.383
  WS02001211           JUNCTION      7.35   204.73     0  03:17       0.212        5.44       0.611
  WS02001212           JUNCTION      0.00   211.49     0  03:16           0        5.41       0.290
  WS02001213           JUNCTION      0.00   216.96     0  03:17           0        5.39       0.332
  WS02003059           JUNCTION      0.00   223.76     0  03:17           0        5.38       0.595
  WS02003060           JUNCTION     16.53  1476.25     0  02:27       0.476        12.1       0.121
  WS02003066           JUNCTION      0.00  1277.78     0  02:26           0        6.31       0.023
  WS02003067           JUNCTION      0.00  1277.41     0  02:25           0        6.32       0.070
  WS02003069           JUNCTION      0.32  1476.39     0  02:27     0.00922        12.1       0.128
  WS02003072           JUNCTION      0.00  1476.48     0  02:28           0        12.1       0.173
  WS02003073           JUNCTION      1.82  1478.37     0  02:28      0.0524        12.1       0.180
  WS02004138           JUNCTION      0.00   380.00     0  00:00           0        5.25       0.054
  WS02004139           JUNCTION      0.32   190.32     0  00:32     0.00924        5.26       0.509
  WS02004401           JUNCTION      0.00  1278.47     0  02:25           0        6.42       0.163
  WS02004402           JUNCTION      0.00  1279.22     0  02:25           0        6.41       0.165
  WS02004403           JUNCTION      0.00  1278.93     0  02:25           0         6.4       0.162
  WS02004404           JUNCTION      0.16  1279.19     0  02:25     0.00467         6.4       0.136
  WS02004405           JUNCTION      0.04  1280.81     0  02:25      0.0011        6.39       0.197
  WS02004406           JUNCTION      0.00  1279.65     0  02:25           0        6.38       0.332
  WS02004407           JUNCTION      0.00  1279.37     0  02:25           0        6.35       0.025
  WS02004409           JUNCTION      0.00  1277.41     0  02:25           0        6.35       0.048
  WS02004410           JUNCTION      0.00  1277.41     0  02:25           0        6.35       0.077
  WS02004411           JUNCTION      0.00  1277.58     0  02:25           0        6.34       0.097
  WS02004412           JUNCTION      0.00  1277.20     0  02:25           0        6.34       0.127
  WS02004413           JUNCTION      0.00  1277.72     0  02:25           0        6.33       0.216
  WS02006109           JUNCTION      1.23  1262.56     0  02:25      0.0354        6.26       0.175
  WS02006110           JUNCTION      0.00  1117.34     0  02:33           0        6.16       0.124
  WS02006111           JUNCTION      0.00  1117.44     0  02:33           0        6.15       0.013
  WS02006112           JUNCTION    230.26  1278.47     0  02:25         0.3        6.45       0.279
  WS02006113           JUNCTION      0.00  1117.32     0  02:33           0        6.16       0.029
  WS02006115           JUNCTION      0.00  1278.14     0  02:25           0        6.43       0.104
  WS02006116           JUNCTION      0.00  1278.84     0  02:25           0        6.43       0.097
  WS02006228           JUNCTION      0.00  1263.10     0  02:25           0        6.24       0.091
  WS02006229           JUNCTION      0.00  2251.77     0  02:25           0        7.56       0.106
  WS02006230           JUNCTION     10.28   999.27     0  02:25       0.296        2.93       0.289
  WS02006231           JUNCTION      0.00   453.29     0  02:25           0        2.17      -0.171
  WS02006232           JUNCTION      0.00   453.44     0  02:25           0        2.18       0.314
  WS02006234           JUNCTION      0.00   453.16     0  02:35           0        2.17      -0.291
  WS02006235           JUNCTION      0.00   427.96     0  03:10           0        2.19       0.386
  WS02006238           JUNCTION      0.00   415.75     0  02:39           0        1.93      -0.290
  WS02006239           JUNCTION      0.00   415.28     0  02:39           0        1.91      -0.283
  WS02006240           JUNCTION      0.00   415.00     0  02:38           0         1.9       0.012
  WS02006242           JUNCTION      0.00   415.55     0  02:38           0        1.88       0.067
  WS02006243           JUNCTION      0.00   371.48     0  00:05           0        1.65       0.108
  WS02006245           JUNCTION      0.00   383.09     0  00:05           0        1.66       0.618
  WS02006247           JUNCTION      0.00   385.59     0  00:04           0        1.66       0.065
  WS02006248           JUNCTION      0.00   390.96     0  00:04           0        1.81      -0.088
  WS02006249           JUNCTION      0.00  1338.12     0  02:23           0        3.68       0.259
  WS02006251           JUNCTION      0.08  1457.88     0  02:23     0.00222        3.71      -0.018
  WS02006252           JUNCTION      0.00   400.00     0  00:00           0         1.7      -0.016
  WS02006253           JUNCTION     28.41  1454.73     0  02:23      0.0334        2.07       0.023
  WS02006256           JUNCTION      0.00   300.00     0  00:00           0       0.703      -0.337
  WS02006280           JUNCTION      0.00  2251.89     0  02:25           0        5.98       0.017
  WS02006284           JUNCTION      0.10  2249.95     0  02:25     0.00275        5.98       0.008
  WS02006287           JUNCTION      0.00  2250.42     0  02:25           0        5.98       0.016
  WSF200               JUNCTION      0.00  1278.05     0  02:26           0        6.31       0.013
  YS02001580           JUNCTION      0.00   114.43     0  02:20           0     0.00399      -5.297
  YS02001583           JUNCTION      0.00   172.87     0  02:20           0      0.0148      -5.515
  YS02001586           JUNCTION    451.77   451.77     0  02:26       0.886       0.897       0.152
  YS02001590           JUNCTION      0.00   318.16     0  02:27           0       0.832      -0.033
  YS02001593           JUNCTION      0.00   317.98     0  02:26           0       0.832       0.017
  YS02001596           JUNCTION      0.00   318.31     0  02:27           0       0.832      -0.003
  YS02001600           JUNCTION      0.00   318.01     0  02:27           0       0.832       0.013
  YS02001601           JUNCTION    797.80  1115.17     0  02:25        1.22        2.05       0.037
  YS02001602           JUNCTION      0.00   517.48     0  02:20           0        1.57       0.018
  YS02001605           JUNCTION      0.00   517.29     0  02:20           0        1.52       0.013
  YS02001607           JUNCTION      0.00   516.78     0  02:20           0        1.52       0.121
  YS02001610           JUNCTION      0.00   517.35     0  02:19           0        1.52       0.147
  YS02001613           JUNCTION      0.00   519.09     0  02:19           0        1.39       0.123
  YS02001616           JUNCTION      0.00   515.70     0  02:19           0        1.39       0.025
  YS02001619           JUNCTION    785.54   928.05     0  02:22        1.36        2.75      -0.002
  YS02001622           JUNCTION      0.00   927.43     0  02:22           0        2.75      -0.001
  YS02001625           JUNCTION      0.00   926.73     0  02:22           0        2.75       0.329
  YS02001629           JUNCTION      0.00   926.39     0  02:22           0        2.45       0.007
  YS02001633           JUNCTION    616.06  1363.49     0  02:22       0.914        3.36       0.101
  YS02001641           JUNCTION      0.00  1360.42     0  02:22           0        3.35       0.084
  YS02001644           JUNCTION    531.16  1744.90     0  02:22       0.748         4.1       0.081
  YS02001647           JUNCTION      0.00  1746.82     0  02:22           0        4.06       0.004
  YS02001649           JUNCTION      0.00  1940.69     0  02:21           0        4.77       0.125
  YS02001652           JUNCTION      0.00   678.05     0  02:25           0       0.712      -0.140
  YS02001655           JUNCTION      0.15   677.23     0  02:26     0.00443       0.711       0.047
  YS02001658           JUNCTION      0.00   675.70     0  02:26           0       0.705      -0.084
  YS02001661           JUNCTION      0.00   742.93     0  02:25           0       0.705      -0.028
  YS02001664           JUNCTION    543.59   543.59     0  02:25       0.704       0.704      -0.010
  YS02001745           JUNCTION    331.83   407.52     0  02:24       0.411       0.411       0.326
  YS02001748           JUNCTION      0.04   530.44     0  02:24      0.0013       0.413      -0.502
  YS02001751           JUNCTION      0.01   401.35     0  02:25    0.000317       0.425       0.231
  YS02001754           JUNCTION      0.26   401.61     0  02:25     0.00749       0.443      -0.374
  YS02001757           JUNCTION      0.00  3076.89     0  02:25           0         6.7       0.469
  YS02001759           JUNCTION    483.50  1137.35     0  02:25       0.598        1.52       0.294
  YS02001762           JUNCTION      0.00   663.35     0  02:24           0       0.926       0.369
  YS02001765           JUNCTION      0.00   658.85     0  02:25           0       0.922       0.290
  YS02001767           JUNCTION      0.54   659.20     0  02:25      0.0154       0.919       0.285
  YS02001770           JUNCTION    658.29   658.29     0  02:25       0.887       0.946       0.190
  YS02001774           JUNCTION      0.00   408.52     0  02:23           0      0.0709       4.561
  YS02001779           JUNCTION      0.01   418.15     0  02:23    0.000144      0.0199      -3.961
  YS02001783           JUNCTION      0.00  1150.83     0  02:24           0        2.51       0.010
  YS02001784           JUNCTION      1.06  1152.01     0  02:25      0.0305        2.54       0.022
  YS02001786           JUNCTION      0.06  1152.15     0  02:25     0.00162        2.54       0.021
  YS02001788           JUNCTION      0.07  1152.36     0  02:25     0.00204        2.55       0.009
  YS02001790           JUNCTION      0.15  1159.96     0  02:26     0.00446        2.55      -0.014
  YS02001791           JUNCTION      0.00  1285.94     0  02:25           0        2.55      -0.026
  YS02001793           JUNCTION      0.00  1238.84     0  02:26           0        2.55      -0.025
  YS02001882           JUNCTION      0.00    54.83     0  02:22           0      0.0122       4.858
  YS02001884           JUNCTION      0.00    76.17     0  02:22           0      0.0479       5.578
  YS02001887           JUNCTION    515.65   515.71     0  02:25       0.628       0.661       0.678
  YS02001890           JUNCTION      0.00   515.88     0  02:25           0       0.621       0.827
  YS02001895           JUNCTION      0.00   494.70     0  02:25           0       0.612       0.176
  YS02001898           JUNCTION      0.00   495.11     0  02:25           0       0.611       0.100
  YS02001901           JUNCTION      0.00   502.38     0  02:23           0       0.613       0.509
  YS02001904           JUNCTION      0.00   506.21     0  02:23           0       0.617       0.457
  YS02001907           JUNCTION      0.00  1490.65     0  02:25           0        1.89       0.967
  YS02001910           JUNCTION      0.00   998.69     0  02:25           0        1.28       0.557
  YS02001915           JUNCTION    538.15   997.43     0  02:25       0.766        1.32       0.110
  YS02001918           JUNCTION      0.00   460.32     0  02:25           0       0.582      -0.031
  YS02001920           JUNCTION      2.87   459.70     0  02:25      0.0827       0.565       0.173
  YS02001923           JUNCTION      0.04   420.60     0  02:25     0.00109       0.466      -0.238
  YS02001926           JUNCTION      0.05   679.14     0  02:24      0.0015       0.446      -0.126
  YS02001929           JUNCTION    273.96   506.15     0  02:24       0.431       0.434      -0.061
  YS02006553           JUNCTION      0.00   795.25     0  02:31           0        1.69       0.698
  YS02006556           JUNCTION      0.00   795.59     0  02:31           0        1.69       0.484
  YS02006558           JUNCTION    658.89  1152.20     0  02:24       0.868        2.54       0.135
  YS02006561           JUNCTION      0.00  1150.74     0  02:24           0        2.51       0.002
  YS02163301           JUNCTION      0.00   923.89     0  02:22           0        2.44       0.063
  YS02163601           JUNCTION      0.11  1362.91     0  02:22     0.00317        3.35       0.145
  YS02164001           JUNCTION      0.00  1362.05     0  02:22           0        3.35       0.071
  YSB1154              JUNCTION    283.26   283.26     0  02:25       0.386       0.387       0.376
  YSB1171              JUNCTION      0.00   528.59     0  02:25           0       0.681       0.949
  YSB1174              JUNCTION    243.68   243.68     0  02:25       0.287       0.287       0.454
  YSB6556              JUNCTION      0.00   283.40     0  02:25           0       0.388       0.323
  CC-1                 OUTFALL       0.00   683.00     0  00:00           0         2.5       0.000
  CC-2                 OUTFALL       0.00   683.00     0  00:00           0        1.54       0.000
  JK-1                 OUTFALL       0.00  1000.00     0  00:00           0        1.19       0.000
  JK-2                 OUTFALL       0.00  1000.00     0  00:00           0       0.552       0.000
  WSC                  OUTFALL       0.00  1478.66     0  02:29           0        12.1       0.000
  CC-storage           STORAGE       0.00  3077.74     0  02:25           0        8.87       0.120
  JK-storage           STORAGE       0.00  1284.08     0  02:26           0         2.7       0.266
  XR-storage           STORAGE     200.00   200.00     0  00:00        5.76        6.36       0.001
  
  
  **********************
  Node Surcharge Summary
  **********************
  
  Surcharging occurs when water rises above the top of the highest conduit.
  ---------------------------------------------------------------------
                                               Max. Height   Min. Depth
                                   Hours       Above Crown    Below Rim
  Node                 Type      Surcharged         Meters       Meters
  ---------------------------------------------------------------------
  HS02004478           JUNCTION        0.24          0.611        0.329
  HS02004479           JUNCTION        0.35          0.871        0.179
  HS02004480           JUNCTION        0.39          0.937        0.163
  HS02004770           JUNCTION        0.31          0.720        0.000
  HS02004777           JUNCTION        0.32          0.780        0.000
  HS02004785           JUNCTION        0.27          0.790        0.000
  HS02004788           JUNCTION        0.26          0.720        0.000
  HS02004792           JUNCTION        0.36          0.900        0.000
  HS02004799           JUNCTION        0.46          1.060        0.000
  HS02004802           JUNCTION        0.39          1.007        0.203
  HS02004807           JUNCTION        0.38          1.220        0.000
  HS02004817           JUNCTION        0.80          1.740        0.000
  HS02004824           JUNCTION        0.26          1.310        0.000
  HS02004830           JUNCTION        0.24          1.330        0.000
  HS02004837           JUNCTION        0.21          1.274        0.066
  HS02004842           JUNCTION        0.32          1.520        0.000
  HS02004848           JUNCTION        0.17          1.370        0.000
  HS02004852           JUNCTION        0.20          1.420        0.000
  HS02004856           JUNCTION        0.17          1.300        0.000
  HS02004862           JUNCTION        0.21          1.300        0.000
  HS02004870           JUNCTION        0.23          1.400        0.000
  HS02004876           JUNCTION        0.29          1.356        0.204
  HS02004881           JUNCTION        0.27          1.054        0.396
  HS02004901           JUNCTION        0.32          0.720        0.000
  WS02004401           JUNCTION        1.06          0.798        0.862
  WS02004402           JUNCTION        1.07          0.746        0.994
  WS02004403           JUNCTION        1.07          0.674        1.356
  WS02004404           JUNCTION        1.16          0.692        2.088
  WS02004405           JUNCTION        1.14          0.638        2.162
  WS02004406           JUNCTION        1.12          0.529        1.921
  WS02004409           JUNCTION        0.62          0.361        1.999
  WS02004410           JUNCTION        0.60          0.275        2.265
  WS02004411           JUNCTION        0.55          0.189        2.341
  WS02004412           JUNCTION        0.48          0.092        2.218
  WS02004413           JUNCTION        0.86          0.139        2.061
  WS02006109           JUNCTION        1.55          1.820        0.000
  WS02006110           JUNCTION        1.27          1.459        0.391
  WS02006111           JUNCTION        0.80          0.864        1.006
  WS02006112           JUNCTION        1.36          1.300        0.380
  WS02006113           JUNCTION        0.81          0.980        0.950
  WS02006115           JUNCTION        1.02          0.879        1.371
  WS02006116           JUNCTION        1.03          0.827        1.463
  WS02006228           JUNCTION        1.55          2.189        0.011
  WS02006229           JUNCTION        0.59          1.020        0.050
  WS02006230           JUNCTION        1.12          1.570        0.000
  WS02006231           JUNCTION        1.14          1.483        0.047
  WS02006232           JUNCTION        1.31          1.480        0.000
  WS02006234           JUNCTION        1.16          1.240        0.000
  WS02006235           JUNCTION        1.19          1.262        0.028
  WS02006238           JUNCTION        1.21          1.226        0.204
  WS02006239           JUNCTION        1.14          1.060        0.230
  WS02006240           JUNCTION        1.12          0.932        0.458
  WS02006242           JUNCTION        1.16          0.820        0.000
  WS02006243           JUNCTION        1.07          0.699        0.071
  WS02006245           JUNCTION        1.05          0.608        0.242
  WS02006247           JUNCTION        1.05          0.551        0.209
  WS02006248           JUNCTION        1.02          0.380        0.000
  WS02006249           JUNCTION        1.03          0.390        0.000
  WS02006251           JUNCTION        0.96          1.170        0.010
  WS02006252           JUNCTION        1.07          1.100        0.000
  WS02006253           JUNCTION        0.97          1.927        0.553
  WS02006256           JUNCTION        7.99          2.050        0.000
  WS02006280           JUNCTION        0.47          0.665        0.115
  WS02006284           JUNCTION        0.41          0.626        0.174
  WS02006287           JUNCTION        0.34          0.686        0.204
  YS02001580           JUNCTION        0.28          0.450        0.000
  YS02001583           JUNCTION        0.28          0.380        0.120
  YS02001586           JUNCTION        0.38          0.510        0.000
  YS02001590           JUNCTION        0.43          0.750        0.000
  YS02001593           JUNCTION        0.43          0.729        0.111
  YS02001596           JUNCTION        0.52          0.982        0.088
  YS02001600           JUNCTION        0.63          1.190        0.000
  YS02001601           JUNCTION        0.93          1.440        0.000
  YS02001602           JUNCTION        0.82          1.270        0.000
  YS02001605           JUNCTION        0.78          1.176        0.004
  YS02001607           JUNCTION        0.41          0.645        0.035
  YS02001610           JUNCTION        0.43          0.680        0.000
  YS02001613           JUNCTION        0.40          0.656        0.044
  YS02001616           JUNCTION        0.37          0.588        0.022
  YS02001619           JUNCTION        0.36          0.572        0.038
  YS02001622           JUNCTION        0.36          0.557        0.063
  YS02001625           JUNCTION        0.50          0.780        0.000
  YS02001629           JUNCTION        0.33          0.470        0.000
  YS02001633           JUNCTION        0.51          1.001        0.059
  YS02001641           JUNCTION        0.46          0.959        0.141
  YS02001644           JUNCTION        0.43          0.920        0.000
  YS02001647           JUNCTION        0.28          0.744        0.156
  YS02001649           JUNCTION        0.36          0.949        0.101
  YS02001652           JUNCTION        0.24          0.800        0.330
  YS02001655           JUNCTION        0.15          0.787        0.413
  YS02001658           JUNCTION        0.06          0.753        0.547
  YS02001661           JUNCTION        0.01          0.248        1.142
  YS02001748           JUNCTION        0.02          0.594        0.596
  YS02001751           JUNCTION        0.09          0.647        0.553
  YS02001754           JUNCTION        0.18          0.700        0.450
  YS02001757           JUNCTION        0.40          0.991        0.219
  YS02001759           JUNCTION        0.33          0.956        0.254
  YS02001762           JUNCTION        0.31          0.979        0.171
  YS02001765           JUNCTION        0.28          0.959        0.141
  YS02001767           JUNCTION        0.26          0.930        0.100
  YS02001770           JUNCTION        0.24          0.908        0.012
  YS02001774           JUNCTION        0.29          0.992        0.058
  YS02001779           JUNCTION        0.18          0.680        0.000
  YS02001783           JUNCTION        0.26          0.445        1.155
  YS02001784           JUNCTION        0.25          0.327        1.163
  YS02001786           JUNCTION        0.16          0.080        1.350
  YS02001790           JUNCTION        0.28          0.449        0.708
  YS02001791           JUNCTION        0.34          0.389        1.531
  YS02001793           JUNCTION        0.44          0.789        1.811
  YS02001882           JUNCTION        0.22          0.709        0.121
  YS02001884           JUNCTION        0.23          0.735        0.135
  YS02001887           JUNCTION        0.26          0.794        0.156
  YS02001890           JUNCTION        0.27          0.760        0.000
  YS02001895           JUNCTION        0.21          0.567        0.183
  YS02001898           JUNCTION        0.21          0.540        0.200
  YS02001901           JUNCTION        0.25          0.679        0.191
  YS02001904           JUNCTION        0.24          0.641        0.209
  YS02001907           JUNCTION        0.43          0.950        0.000
  YS02001910           JUNCTION        0.28          0.961        0.139
  YS02001915           JUNCTION        0.22          0.904        0.096
  YS02001918           JUNCTION        0.16          0.810        0.000
  YS02001920           JUNCTION        0.17          1.140        0.000
  YS02001923           JUNCTION        0.01          0.820        0.000
  YS02001926           JUNCTION        0.01          0.900        0.000
  YS02001929           JUNCTION        0.01          0.780        0.000
  YS02006553           JUNCTION        0.44          0.977        0.213
  YS02006556           JUNCTION        0.36          0.913        0.437
  YS02006558           JUNCTION        0.35          0.896        0.504
  YS02006561           JUNCTION        0.12          0.120        1.030
  YS02163301           JUNCTION        0.50          0.920        0.110
  YS02163601           JUNCTION        0.54          1.047        0.033
  YS02164001           JUNCTION        0.47          0.970        0.130
  YSB1154              JUNCTION        0.54          1.178        0.222
  YSB1171              JUNCTION        0.54          1.100        0.000
  YSB1174              JUNCTION        0.49          1.082        0.168
  YSB6556              JUNCTION        0.44          1.034        0.066
  
  
  *********************
  Node Flooding Summary
  *********************
  
  Flooding refers to all water that overflows a node, whether it ponds or not.
  --------------------------------------------------------------------------
                                                             Total   Maximum
                                 Maximum   Time of Max       Flood    Ponded
                        Hours       Rate    Occurrence      Volume     Depth
  Node                 Flooded       LPS   days hr:min    10^6 ltr    Meters
  --------------------------------------------------------------------------
  HS02004770              0.18    587.47      0  02:25       0.220     0.000
  HS02004777              0.01     69.21      0  02:20       0.001     0.000
  HS02004785              0.01     89.39      0  02:20       0.000     0.000
  HS02004788              0.01    250.20      0  02:20       0.001     0.000
  HS02004792              0.18   1008.78      0  02:25       0.353     0.000
  HS02004799              0.04     59.82      0  02:23       0.003     0.000
  HS02004807              0.01      9.92      0  02:23       0.000     0.000
  HS02004817              0.01      6.01      0  02:23       0.000     0.000
  HS02004824              0.01      7.87      0  02:23       0.000     0.000
  HS02004830              0.01      5.55      0  02:23       0.000     0.000
  HS02004842              0.01    120.74      0  02:23       0.001     0.000
  HS02004848              0.01    121.44      0  02:23       0.000     0.000
  HS02004852              0.01    216.28      0  02:23       0.001     0.000
  HS02004856              0.01     56.67      0  02:23       0.000     0.000
  HS02004862              0.01    121.93      0  02:23       0.001     0.000
  HS02004870              0.01     68.65      0  02:23       0.000     0.000
  HS02004901              0.23    480.47      0  02:26       0.276     0.000
  WS02006109              0.21    214.82      0  02:25       0.091     0.000
  WS02006230              0.42    546.41      0  02:25       0.485     0.000
  WS02006232              0.09      0.67      0  02:38       0.000     0.000
  WS02006234              0.46    128.71      0  02:38       0.114     0.000
  WS02006242              0.54    137.88      0  02:38       0.225     0.000
  WS02006248              0.75    338.92      0  02:28       0.765     0.000
  WS02006249              0.98   1277.31      0  02:23       2.469     0.000
  WS02006252              0.15    324.58      0  02:23       0.065     0.000
  WS02006256              0.63    294.39      0  02:37       0.329     0.000
  YS02001580              0.01     91.63      0  02:20       0.000     0.000
  YS02001586              0.20    134.17      0  02:26       0.053     0.000
  YS02001590              0.01      8.16      0  02:20       0.000     0.000
  YS02001600              0.01      2.74      0  02:20       0.000     0.000
  YS02001601              0.32    717.37      0  02:25       0.476     0.000
  YS02001602              0.26     62.01      0  02:33       0.049     0.000
  YS02001610              0.21    275.16      0  02:26       0.129     0.000
  YS02001625              0.19    870.52      0  02:26       0.294     0.000
  YS02001629              0.04     90.29      0  02:20       0.007     0.000
  YS02001644              0.04    293.23      0  02:25       0.026     0.000
  YS02001779              0.02    332.98      0  02:23       0.004     0.000
  YS02001890              0.03     53.74      0  02:23       0.003     0.000
  YS02001907              0.11    991.84      0  02:25       0.189     0.000
  YS02001918              0.01    172.37      0  02:24       0.002     0.000
  YS02001920              0.01     31.85      0  02:24       0.000     0.000
  YS02001923              0.01     76.71      0  02:24       0.000     0.000
  YS02001926              0.01    125.66      0  02:24       0.001     0.000
  YS02001929              0.01    213.15      0  02:24       0.001     0.000
  YSB1171                 0.09    358.24      0  02:25       0.077     0.000
  JK-storage              0.15    220.64      0  02:43       0.060     0.000
  
  
  **********************
  Storage Volume Summary
  **********************
  
  --------------------------------------------------------------------------------------------------
                         Average     Avg  Evap Exfil       Maximum     Max    Time of Max    Maximum
                          Volume    Pcnt  Pcnt  Pcnt        Volume    Pcnt     Occurrence    Outflow
  Storage Unit           1000 m3    Full  Loss  Loss       1000 m3    Full    days hr:min        LPS
  --------------------------------------------------------------------------------------------------
  CC-storage               2.937      46     0     0         4.321      67       0  02:38    1783.53
  JK-storage               0.146      50     0     0         0.291     100       0  02:41    2300.00
  XR-storage               0.957      66     0     0         1.111      77       0  08:00     380.00
  
  
  ***********************
  Outfall Loading Summary
  ***********************
  
  -----------------------------------------------------------
                         Flow       Avg       Max       Total
                         Freq      Flow      Flow      Volume
  Outfall Node           Pcnt       LPS       LPS    10^6 ltr
  -----------------------------------------------------------
  CC-1                  16.08    683.00    683.00       2.501
  CC-2                   9.10    683.00    683.00       1.537
  JK-1                  14.69    399.26   1000.00       1.191
  JK-2                  11.65    242.46   1000.00       0.552
  WSC                   99.96    502.49   1478.66      12.117
  -----------------------------------------------------------
  System                30.29   2510.21   1478.66      17.898
  
  
  ********************
  Link Flow Summary
  ********************
  
  -----------------------------------------------------------------------------
                                 Maximum  Time of Max   Maximum    Max/    Max/
                                  |Flow|   Occurrence   |Veloc|    Full    Full
  Link                 Type          LPS  days hr:min     m/sec    Flow   Depth
  -----------------------------------------------------------------------------
  1                    CONDUIT   1478.66     0  02:29      3.68    0.51    0.51
  HS02004478WS02006287 CONDUIT   2250.42     0  02:25      2.61    0.63    1.00
  HS02004479HS02004480 CONDUIT    453.14     0  02:23      0.65    0.44    1.00
  HS02004480HS02004478 CONDUIT   2120.52     0  02:21      3.03    8.93    1.00
  HS02004770HS02004777 CONDUIT    752.54     0  02:20      1.08    1.38    1.00
  HS02004777HS02004785 CONDUIT    768.24     0  02:19      1.15    0.95    1.00
  HS02004785HS02004788 CONDUIT    676.30     0  02:20      1.36    5.10    1.00
  HS02004788HS02004792 CONDUIT    810.52     0  02:20      1.42    0.54    1.00
  HS02004792HS02004799 CONDUIT   1630.90     0  02:21      2.33    1.00    1.00
  HS02004799HS02004480 CONDUIT   1773.55     0  02:21      2.53    2.24    1.00
  HS02004802HS02004478 CONDUIT    746.01     0  02:25      1.07    0.66    1.00
  HS02004807HS02004802 CONDUIT    745.71     0  02:25      1.07    1.42    1.00
  HS02004817HS02004807 CONDUIT    472.23     0  02:26      0.67    0.28    1.00
  HS02004817HS02004824 CONDUIT    471.40     0  02:26      0.67    0.21    1.00
  HS02004824HS02004830 CONDUIT    661.34     0  02:20      0.97    0.87    1.00
  HS02004830HS02004837 CONDUIT    660.04     0  02:21      1.03    0.66    1.00
  HS02004837HS02004842 CONDUIT    840.48     0  02:21      1.20    0.50    1.00
  HS02004842HS02004848 CONDUIT    839.08     0  02:21      1.33    0.49    1.00
  HS02004848HS02004852 CONDUIT   1085.88     0  02:23      1.64    1.22    1.00
  HS02004852HS02004856 CONDUIT   1094.45     0  02:23      1.56    1.25    1.00
  HS02004856HS02004862 CONDUIT   1100.00     0  02:23      1.71    1.10    1.00
  HS02004862HS02004870 CONDUIT   1214.23     0  02:22      1.95    1.31    1.00
  HS02004870HS02004876 CONDUIT   1191.85     0  02:23      1.82    0.79    1.00
  HS02004876HS02004881 CONDUIT   1347.68     0  02:23      2.37   14.33    1.00
  HS02004881HS02006253 CONDUIT   1429.06     0  02:23      2.74    0.28    1.00
  HS02004901HS02004770 CONDUIT    264.26     0  02:31      0.38    0.99    1.00
  WS02001211WS02001212 CONDUIT    211.49     0  03:16      0.54    0.16    0.68
  WS02001212WS02001213 CONDUIT    216.96     0  03:17      1.04    0.33    0.55
  WS02001213WS02003059 CONDUIT    223.76     0  03:17      0.47    0.37    0.89
  WS02003059WS02003060 CONDUIT    232.93     0  03:16      0.67    0.15    0.80
  WS02003060WS02003069 CONDUIT   1476.07     0  02:27      2.08    0.58    0.60
  WS02003066WSF200     CONDUIT   1278.05     0  02:26      3.25    0.22    0.38
  WS02003067WS02003066 CONDUIT   1277.78     0  02:26      1.98    0.41    0.56
  WS02003069WS02003072 CONDUIT   1476.48     0  02:28      1.88    0.71    0.65
  WS02003072WS02003073 CONDUIT   1476.55     0  02:28      2.04    3.19    0.61
  WS02004138WS02004139 CONDUIT    190.00     0  00:32      2.15    0.04    0.41
  WS02004139WS02001211 CONDUIT    197.38     0  03:17      0.54    0.25    0.60
  WS02004401WS02004402 CONDUIT   1279.22     0  02:25      1.63    1.54    1.00
  WS02004402WS02004403 CONDUIT   1278.93     0  02:25      1.63    1.84    1.00
  WS02004403WS02004404 CONDUIT   1279.02     0  02:25      1.63    0.92    1.00
  WS02004404WS02004405 CONDUIT   1280.77     0  02:25      1.63   12.55    1.00
  WS02004405WS02004406 CONDUIT   1279.65     0  02:25      1.63    2.52    1.00
  WS02004406WS02004407 CONDUIT   1279.37     0  02:25      1.77    0.57    0.94
  WS02004407WS02004409 CONDUIT   1277.41     0  02:25      1.77    0.45    0.94
  WS02004409WS02004410 CONDUIT   1277.41     0  02:25      1.63    1.65    1.00
  WS02004410WS02004411 CONDUIT   1277.58     0  02:25      1.63    1.74    1.00
  WS02004411WS02004412 CONDUIT   1277.20     0  02:25      1.63    1.81    1.00
  WS02004412WS02004413 CONDUIT   1277.72     0  02:25      1.63    0.86    1.00
  WS02004413WS02003067 CONDUIT   1277.41     0  02:25      1.98    0.55    0.76
  WS02006109WS02006110 CONDUIT   1117.34     0  02:33      2.22    2.15    1.00
  WS02006110WS02006113 CONDUIT   1117.32     0  02:33      2.22    1.02    1.00
  WS02006111WS02006112 CONDUIT   1117.53     0  02:33      2.22    0.53    1.00
  WS02006112WS02006115 CONDUIT   1278.14     0  02:25      1.63    0.75    1.00
  WS02006113WS02006111 CONDUIT   1117.44     0  02:33      2.60    1.34    1.00
  WS02006115WS02006116 CONDUIT   1278.84     0  02:25      1.63    1.64    1.00
  WS02006116WS02004401 CONDUIT   1278.47     0  02:25      1.63    1.76    1.00
  WS02006228WS02006109 CONDUIT   1261.33     0  02:25      2.51    5.51    1.00
  WS02006229WS02006228 CONDUIT   1263.10     0  02:25      2.51    4.18    1.00
  WS02006230WS02006229 CONDUIT    988.99     0  02:25      2.57   22.01    1.00
  WS02006231WS02006230 CONDUIT    453.29     0  02:25      1.18    6.88    1.00
  WS02006232WS02006231 CONDUIT    453.44     0  02:25      1.18    0.95    1.00
  WS02006234WS02006232 CONDUIT    453.16     0  02:35      1.41    0.92    1.00
  WS02006235WS02006234 CONDUIT    428.10     0  03:10      1.23    4.52    1.00
  WS02006238WS02006235 CONDUIT    415.75     0  02:39      1.45    0.93    1.00
  WS02006239WS02006238 CONDUIT    415.28     0  02:39      1.12    1.33    1.00
  WS02006240WS02006239 CONDUIT    415.00     0  02:38      1.26    1.31    1.00
  WS02006242WS02006240 CONDUIT    415.55     0  02:38      1.14    1.65    1.00
  WS02006243WS02006242 CONDUIT    357.32     0  00:05      1.34    0.76    1.00
  WS02006245WS02006243 CONDUIT    371.48     0  00:05      1.39    1.10    1.00
  WS02006247WS02006245 CONDUIT    383.09     0  00:05      1.37    3.04    1.00
  WS02006248WS02006247 CONDUIT    385.59     0  00:04      1.38    0.84    1.00
  WS02006249WS02006248 CONDUIT    390.96     0  00:04      1.38    2.14    1.00
  WS02006251WS02006249 CONDUIT   1338.12     0  02:23      3.48    3.86    1.00
  WS02006252WS02006251 CONDUIT    408.16     0  02:44      3.88    1.50    1.00
  WS02006253WS02006251 CONDUIT   1457.81     0  02:23      3.79    4.37    1.00
  WS02006256WS02006235 CONDUIT    288.93     0  00:00      4.23    3.06    1.00
  WS02006280WS02006229 CONDUIT   2251.77     0  02:25      4.50    0.48    1.00
  WS02006284WS02006280 CONDUIT   2251.89     0  02:25      2.96    0.94    1.00
  WS02006287WS02006284 CONDUIT   2249.86     0  02:25      2.86    1.04    1.00
  WSF200WS02003060     CONDUIT   1278.32     0  02:26      2.30    0.28    0.50
  YS02001580YS02001583 CONDUIT    114.43     0  02:20      0.69    0.44    1.00
  YS02001583YS02001586 CONDUIT    165.51     0  02:20      0.69    0.25    1.00
  YS02001586YS02001590 CONDUIT    318.16     0  02:27      1.27    0.56    1.00
  YS02001590YS02001593 CONDUIT    317.98     0  02:26      1.12    2.00    1.00
  YS02001593YS02001596 CONDUIT    318.31     0  02:27      1.72    0.50    1.00
  YS02001596YS02001600 CONDUIT    318.01     0  02:27      1.23    0.62    1.00
  YS02001600YS02001601 CONDUIT    318.01     0  02:27      1.12    0.55    1.00
  YS02001601YS02001602 CONDUIT    517.48     0  02:20      1.83    1.87    1.00
  YS02001602YS02001605 CONDUIT    517.29     0  02:20      1.83   10.95    1.00
  YS02001605YS02001607 CONDUIT    516.78     0  02:20      1.83    2.83    1.00
  YS02001607YS02001610 CONDUIT    517.35     0  02:19      0.66    0.49    1.00
  YS02001610YS02001613 CONDUIT    519.09     0  02:19      0.66    0.60    1.00
  YS02001613YS02001616 CONDUIT    515.70     0  02:19      0.66    0.44    1.00
  YS02001616YS02001619 CONDUIT    501.39     0  02:20      0.66    0.87    1.00
  YS02001619YS02001622 CONDUIT    927.43     0  02:22      1.19    1.37    1.00
  YS02001622YS02001625 CONDUIT    926.73     0  02:22      1.18    0.49    1.00
  YS02001625YS02001629 CONDUIT    926.39     0  02:22      1.18    0.44    1.00
  YS02001629YS02163301 CONDUIT    923.89     0  02:22      1.18    1.14    1.00
  YS02001633YS02163601 CONDUIT   1362.80     0  02:22      1.74    1.43    1.00
  YS02001641YS02001644 CONDUIT   1360.45     0  02:22      1.73    4.40    1.00
  YS02001644YS02001647 CONDUIT   1746.82     0  02:22      2.24    1.03    1.00
  YS02001647YS02001649 CONDUIT   1753.48     0  02:22      2.32    0.93    1.00
  YS02001649YS02001757 CONDUIT   1915.85     0  02:22      2.44    1.16    1.00
  YS02001652YS02001649 CONDUIT    679.90     0  02:25      0.87    0.34    1.00
  YS02001655YS02001652 CONDUIT    678.05     0  02:25      1.30    0.33    1.00
  YS02001658YS02001655 CONDUIT    677.07     0  02:26      1.91    0.29    1.00
  YS02001661YS02001658 CONDUIT    675.70     0  02:26      2.29    0.27    1.00
  YS02001664YS02001661 CONDUIT    742.93     0  02:25      2.27    0.23    0.76
  YS02001745YS02001748 CONDUIT    530.39     0  02:24      2.10    0.20    0.87
  YS02001748YS02001751 CONDUIT    401.34     0  02:25      1.65    0.20    1.00
  YS02001751YS02001754 CONDUIT    401.35     0  02:25      1.44    0.19    1.00
  YS02001754YS02001757 CONDUIT    401.34     0  02:25      0.51    0.16    1.00
  YS02001757CaochengTiaoxuchi CONDUIT   3077.74     0  02:25      3.92    1.33    1.00
  YS02001759YS02001757 CONDUIT   1135.74     0  02:25      1.45    0.81    1.00
  YS02001762YS02001759 CONDUIT    669.11     0  02:24      0.85    0.77    1.00
  YS02001765YS02001762 CONDUIT    663.35     0  02:24      0.84    0.62    1.00
  YS02001767YS02001765 CONDUIT    658.85     0  02:25      0.84    0.83    1.00
  YS02001770YS02001767 CONDUIT    658.67     0  02:25      0.84    2.61    1.00
  YS02001774YS02001770 CONDUIT    408.52     0  02:23      0.52    0.26    1.00
  YS02001779YS02001774 CONDUIT    418.15     0  02:23      0.54    0.21    1.00
  YS02001783YS02001784 CONDUIT   1150.95     0  02:25      2.29    1.59    1.00
  YS02001784YS02001785 CONDUIT   1152.09     0  02:25      2.29    2.68    1.00
  YS02001786YS02001788 CONDUIT   1152.29     0  02:25      2.46    2.22    0.99
  YS02001788YS02001790 CONDUIT   1159.81     0  02:26      2.70    0.85    0.99
  YS02001790YS02001791 CONDUIT   1285.94     0  02:25      3.44    1.40    1.00
  YS02001791YS02001793 CONDUIT   1238.84     0  02:26      6.75    0.53    1.00
  YS02001793JiankangQianchi CONDUIT   1284.08     0  02:26      2.55    0.10    1.00
  YS02001882YS02001884 CONDUIT     54.83     0  02:22      0.08    0.06    1.00
  YS02001884YS02001887 CONDUIT     76.17     0  02:22      0.10    0.10    1.00
  YS02001887YS02001890 CONDUIT    515.88     0  02:25      0.66    0.88    1.00
  YS02001890YS02001895 CONDUIT    494.70     0  02:25      0.63    0.23    1.00
  YS02001895YS02001898 CONDUIT    495.11     0  02:25      0.63    0.86    1.00
  YS02001898YS02001901 CONDUIT    502.38     0  02:23      0.64    0.32    1.00
  YS02001901YS02001904 CONDUIT    506.21     0  02:23      0.64    0.79    1.00
  YS02001904YS02001907 CONDUIT    510.85     0  02:23      0.65    0.18    1.00
  YS02001907YS02006553 CONDUIT    795.25     0  02:31      0.88    0.94    1.00
  YS02001910YS02001907 CONDUIT    998.79     0  02:25      1.27    0.56    1.00
  YS02001915YS02001910 CONDUIT    998.69     0  02:25      1.27    0.50    1.00
  YS02001918YS02001915 CONDUIT    461.61     0  02:25      0.59    0.25    1.00
  YS02001920YS02001918 CONDUIT    460.32     0  02:25      0.64    0.45    1.00
  YS02001923YS02001920 CONDUIT    456.83     0  02:25      0.72    0.21    1.00
  YS02001926YS02001923 CONDUIT    420.56     0  02:25      0.99    0.60    1.00
  YS02001929YS02001926 CONDUIT    417.22     0  02:25      1.17    0.20    1.00
  YS02006553YS02006556 CONDUIT    795.59     0  02:31      1.01    0.68    1.00
  YS02006556YS02006558 CONDUIT    797.54     0  02:31      1.02    0.63    1.00
  YS02006558YS02006561 CONDUIT   1150.74     0  02:24      4.07    2.54    1.00
  YS02006561YS02001783 CONDUIT   1150.83     0  02:24      2.29    0.60    1.00
  YS02163301YS02001633 CONDUIT    923.17     0  02:22      1.18    0.87    1.00
  YS02163601YS02164001 CONDUIT   1362.05     0  02:22      1.73    1.21    1.00
  YS02164001YS02001641 CONDUIT   1360.42     0  02:22      1.73    1.86    1.00
  YSB1154YSB6556       CONDUIT    283.40     0  02:25      0.74    0.51    1.00
  YSB1171HS02004479    CONDUIT    450.80     0  02:23      0.90    0.30    1.00
  YSB1174YSB1171       CONDUIT    244.05     0  02:25      0.63    0.37    1.00
  YSB6556YSB1171       CONDUIT    284.54     0  02:25      0.74    0.29    1.00
  CC-R1                PUMP       683.00     0  00:00              1.00
  CC-R2                PUMP       683.00     0  00:00              1.00
  CC-S1                PUMP       200.00     0  00:00              1.00
  CC-S2                PUMP       200.00     0  00:00              1.00
  JK-R1                PUMP      1000.00     0  00:00              1.00
  JK-R2                PUMP      1000.00     0  00:00              1.00
  JK-S                 PUMP       300.00     0  00:00              1.00
  XR-1                 PUMP        95.00     0  00:00              1.00
  XR-2                 PUMP        95.00     0  00:00              1.00
  XR-3                 PUMP        95.00     0  00:00              1.00
  XR-4                 PUMP        95.00     0  00:00              1.00
  
  
  ***************************
  Flow Classification Summary
  ***************************
  
  -------------------------------------------------------------------------------------
                      Adjusted    ---------- Fraction of Time in Flow Class ---------- 
                       /Actual         Up    Down  Sub   Sup   Up    Down  Norm  Inlet 
  Conduit               Length    Dry  Dry   Dry   Crit  Crit  Crit  Crit  Ltd   Ctrl  
  -------------------------------------------------------------------------------------
  1                       1.00   0.00  0.00  0.00  0.00  1.00  0.00  0.00  0.30  0.00
  HS02004478WS02006287    1.00   0.12  0.00  0.00  0.62  0.26  0.00  0.00  0.62  0.00
  HS02004479HS02004480    1.00   0.03  0.00  0.00  0.97  0.00  0.00  0.00  0.12  0.00
  HS02004480HS02004478    1.00   0.10  0.00  0.00  0.55  0.00  0.00  0.36  0.00  0.00
  HS02004770HS02004777    1.00   0.00  0.09  0.00  0.91  0.00  0.00  0.00  0.03  0.00
  HS02004777HS02004785    1.00   0.00  0.00  0.00  1.00  0.00  0.00  0.00  0.14  0.00
  HS02004785HS02004788    1.00   0.00  0.00  0.00  1.00  0.00  0.00  0.00  0.00  0.00
  HS02004788HS02004792    1.00   0.00  0.00  0.00  0.99  0.01  0.00  0.00  0.93  0.00
  HS02004792HS02004799    1.00   0.00  0.00  0.00  0.99  0.01  0.00  0.00  0.90  0.00
  HS02004799HS02004480    1.00   0.00  0.02  0.00  0.88  0.00  0.09  0.00  0.00  0.00
  HS02004802HS02004478    1.00   0.10  0.01  0.00  0.90  0.00  0.00  0.00  0.03  0.00
  HS02004807HS02004802    1.00   0.09  0.00  0.00  0.89  0.00  0.00  0.01  0.00  0.00
  HS02004817HS02004807    1.00   0.00  0.09  0.00  0.91  0.00  0.00  0.00  0.01  0.00
  HS02004817HS02004824    1.00   0.00  0.00  0.00  1.00  0.00  0.00  0.00  0.87  0.00
  HS02004824HS02004830    1.00   0.00  0.00  0.00  1.00  0.00  0.00  0.00  0.01  0.00
  HS02004830HS02004837    1.00   0.00  0.00  0.00  1.00  0.00  0.00  0.00  0.92  0.00
  HS02004837HS02004842    1.00   0.00  0.00  0.00  1.00  0.00  0.00  0.00  0.11  0.00
  HS02004842HS02004848    1.00   0.00  0.09  0.00  0.91  0.00  0.00  0.00  0.60  0.00
  HS02004848HS02004852    1.00   0.09  0.00  0.00  0.91  0.00  0.00  0.00  0.69  0.00
  HS02004852HS02004856    1.00   0.09  0.01  0.00  0.90  0.00  0.00  0.00  0.73  0.00
  HS02004856HS02004862    1.00   0.00  0.14  0.00  0.86  0.00  0.00  0.00  0.76  0.00
  HS02004862HS02004870    1.00   0.00  0.00  0.00  1.00  0.00  0.00  0.00  0.05  0.00
  HS02004870HS02004876    1.00   0.00  0.00  0.00  0.99  0.01  0.00  0.00  0.90  0.00
  HS02004876HS02004881    1.00   0.02  0.00  0.00  0.83  0.16  0.00  0.00  0.00  0.00
  HS02004881HS02006253    1.00   0.03  0.01  0.00  0.36  0.02  0.00  0.59  0.16  0.00
  HS02004901HS02004770    1.00   0.09  0.00  0.00  0.91  0.00  0.00  0.00  0.00  0.00
  WS02001211WS02001212    1.00   0.00  0.02  0.00  0.98  0.00  0.00  0.00  0.00  0.00
  WS02001212WS02001213    1.00   0.02  0.00  0.00  0.32  0.00  0.66  0.00  0.00  0.00
  WS02001213WS02003059    1.00   0.00  0.00  0.00  1.00  0.00  0.00  0.00  0.00  0.00
  WS02003059WS02003060    1.00   0.00  0.00  0.00  1.00  0.00  0.00  0.00  0.03  0.00
  WS02003060WS02003069    1.00   0.00  0.00  0.00  0.99  0.01  0.00  0.00  0.51  0.00
  WS02003066WSF200        1.00   0.09  0.00  0.00  0.00  0.91  0.00  0.00  0.69  0.00
  WS02003067WS02003066    1.00   0.07  0.01  0.00  0.91  0.00  0.00  0.00  0.00  0.00
  WS02003069WS02003072    1.00   0.00  0.00  0.00  1.00  0.00  0.00  0.00  0.72  0.00
  WS02003072WS02003073    1.00   0.00  0.00  0.00  0.00  0.00  0.00  1.00  0.00  0.00
  WS02004138WS02004139    1.00   0.00  0.00  0.00  0.98  0.00  0.00  0.01  0.98  0.00
  WS02004139WS02001211    1.00   0.00  0.00  0.00  1.00  0.00  0.00  0.00  0.00  0.00
  WS02004401WS02004402    1.00   0.02  0.00  0.00  0.98  0.00  0.00  0.00  0.00  0.00
  WS02004402WS02004403    1.00   0.02  0.00  0.00  0.98  0.00  0.00  0.00  0.00  0.00
  WS02004403WS02004404    1.00   0.00  0.02  0.00  0.98  0.00  0.00  0.00  0.00  0.00
  WS02004404WS02004405    1.00   0.00  0.00  0.00  1.00  0.00  0.00  0.00  0.00  0.00
  WS02004405WS02004406    1.00   0.00  0.00  0.00  1.00  0.00  0.00  0.00  0.00  0.00
  WS02004406WS02004407    1.00   0.00  0.04  0.00  0.96  0.00  0.00  0.00  0.00  0.00
  WS02004407WS02004409    1.00   0.04  0.00  0.00  0.96  0.01  0.00  0.00  0.87  0.00
  WS02004409WS02004410    1.00   0.04  0.00  0.00  0.96  0.00  0.00  0.00  0.02  0.00
  WS02004410WS02004411    1.00   0.04  0.00  0.00  0.96  0.00  0.00  0.00  0.00  0.00
  WS02004411WS02004412    1.00   0.04  0.00  0.00  0.96  0.00  0.00  0.00  0.00  0.00
  WS02004412WS02004413    1.00   0.04  0.00  0.00  0.96  0.00  0.00  0.00  0.01  0.00
  WS02004413WS02003067    1.00   0.04  0.03  0.00  0.00  0.00  0.93  0.00  0.00  0.00
  WS02006109WS02006110    1.00   0.00  0.01  0.00  0.99  0.00  0.01  0.00  0.00  0.00
  WS02006110WS02006113    1.00   0.01  0.01  0.00  0.99  0.00  0.00  0.00  0.00  0.00
  WS02006111WS02006112    1.00   0.01  0.00  0.00  0.98  0.00  0.00  0.00  0.84  0.00
  WS02006112WS02006115    1.00   0.02  0.00  0.00  0.98  0.00  0.00  0.00  0.00  0.00
  WS02006113WS02006111    1.00   0.01  0.00  0.00  0.16  0.82  0.00  0.00  0.08  0.00
  WS02006115WS02006116    1.00   0.02  0.00  0.00  0.98  0.00  0.00  0.01  0.00  0.00
  WS02006116WS02004401    1.00   0.02  0.00  0.00  0.98  0.00  0.00  0.00  0.00  0.00
  WS02006228WS02006109    1.00   0.00  0.00  0.00  1.00  0.00  0.00  0.00  0.00  0.00
  WS02006229WS02006228    1.00   0.00  0.00  0.00  0.99  0.00  0.00  0.01  0.00  0.00
  WS02006230WS02006229    1.00   0.00  0.00  0.00  0.99  0.00  0.00  0.01  0.01  0.00
  WS02006231WS02006230    1.00   0.00  0.00  0.00  0.35  0.00  0.65  0.00  0.00  0.00
  WS02006232WS02006231    1.00   0.00  0.00  0.00  0.99  0.00  0.00  0.00  0.00  0.00
  WS02006234WS02006232    1.00   0.00  0.00  0.00  1.00  0.00  0.00  0.00  0.00  0.00
  WS02006235WS02006234    1.00   0.00  0.00  0.00  0.77  0.00  0.23  0.00  0.00  0.00
  WS02006238WS02006235    1.00   0.00  0.00  0.00  1.00  0.00  0.00  0.00  0.00  0.00
  WS02006239WS02006238    1.00   0.00  0.00  0.00  1.00  0.00  0.00  0.00  0.04  0.00
  WS02006240WS02006239    1.00   0.00  0.00  0.00  0.60  0.00  0.00  0.40  0.01  0.00
  WS02006242WS02006240    1.00   0.00  0.00  0.00  0.98  0.00  0.01  0.00  0.00  0.00
  WS02006243WS02006242    1.00   0.00  0.00  0.00  0.99  0.00  0.00  0.01  0.70  0.00
  WS02006245WS02006243    1.00   0.00  0.00  0.00  0.93  0.00  0.00  0.07  0.01  0.00
[...]
  WSF200WS02003060        1.00   0.00  0.09  0.00  0.61  0.30  0.00  0.00  0.65  0.00
  YS02001580YS02001583    1.00   0.26  0.51  0.00  0.23  0.00  0.00  0.00  0.66  0.00
  YS02001583YS02001586    1.00   0.38  0.35  0.00  0.27  0.00  0.00  0.00  0.66  0.00
  YS02001586YS02001590    1.00   0.09  0.00  0.00  0.52  0.03  0.00  0.36  0.36  0.00
  YS02001590YS02001593    1.00   0.09  0.01  0.00  0.09  0.00  0.82  0.00  0.00  0.00
  YS02001593YS02001596    1.00   0.10  0.00  0.00  0.10  0.01  0.00  0.79  0.01  0.00
  YS02001596YS02001600    1.00   0.10  0.00  0.00  0.17  0.02  0.00  0.71  0.05  0.00
  YS02001600YS02001601    1.00   0.10  0.01  0.00  0.90  0.00  0.00  0.00  0.65  0.00
  YS02001601YS02001602    1.00   0.09  0.01  0.00  0.90  0.00  0.00  0.00  0.00  0.00
  YS02001602YS02001605    1.00   0.10  0.00  0.00  0.90  0.00  0.00  0.00  0.00  0.00
  YS02001605YS02001607    1.00   0.10  0.00  0.00  0.90  0.00  0.00  0.00  0.00  0.00
  YS02001607YS02001610    1.00   0.10  0.01  0.00  0.90  0.00  0.00  0.00  0.02  0.00
  YS02001610YS02001613    1.00   0.09  0.00  0.00  0.91  0.00  0.00  0.00  0.01  0.00
  YS02001613YS02001616    1.00   0.09  0.00  0.00  0.91  0.00  0.00  0.00  0.01  0.00
  YS02001616YS02001619    1.00   0.09  0.00  0.00  0.91  0.00  0.00  0.00  0.00  0.00
  YS02001619YS02001622    1.00   0.09  0.00  0.00  0.91  0.00  0.00  0.00  0.35  0.00
  YS02001622YS02001625    1.00   0.09  0.00  0.00  0.91  0.00  0.00  0.00  0.07  0.00
  YS02001625YS02001629    1.00   0.09  0.05  0.00  0.13  0.00  0.73  0.00  0.00  0.00
  YS02001629YS02163301    1.00   0.12  0.01  0.00  0.87  0.00  0.00  0.00  0.00  0.00
  YS02001633YS02163601    1.00   0.00  0.00  0.00  1.00  0.00  0.00  0.00  0.16  0.00
  YS02001641YS02001644    1.00   0.00  0.00  0.00  1.00  0.00  0.00  0.00  0.00  0.00
  YS02001644YS02001647    1.00   0.00  0.14  0.00  0.86  0.00  0.00  0.00  0.00  0.00
  YS02001647YS02001649    1.00   0.00  0.14  0.00  0.72  0.13  0.00  0.00  0.59  0.00
  YS02001649YS02001757    1.00   0.00  0.00  0.00  0.91  0.09  0.00  0.00  0.21  0.00
  YS02001652YS02001649    1.00   0.00  0.00  0.00  0.96  0.04  0.00  0.00  0.22  0.00
  YS02001655YS02001652    1.00   0.00  0.00  0.00  0.29  0.09  0.00  0.61  0.16  0.00
  YS02001658YS02001655    1.00   0.00  0.11  0.00  0.57  0.33  0.00  0.00  0.75  0.00
  YS02001661YS02001658    1.00   0.11  0.00  0.00  0.41  0.49  0.00  0.00  0.74  0.00
  YS02001664YS02001661    1.00   0.09  0.00  0.00  0.80  0.11  0.00  0.00  0.86  0.00
  YS02001745YS02001748    1.00   0.00  0.00  0.00  0.06  0.01  0.00  0.93  0.03  0.00
  YS02001748YS02001751    1.00   0.00  0.00  0.00  0.77  0.23  0.00  0.00  0.79  0.00
  YS02001751YS02001754    1.00   0.00  0.00  0.00  0.16  0.01  0.00  0.83  0.08  0.00
  YS02001754YS02001757    1.00   0.00  0.00  0.00  1.00  0.00  0.00  0.00  0.33  0.00
  YS02001757CaochengTiaoxuchi    1.00   0.00  0.00  0.00  1.00  0.00  0.00  0.00  0.28  0.00
  YS02001759YS02001757    1.00   0.00  0.00  0.00  1.00  0.00  0.00  0.00  0.09  0.00
  YS02001762YS02001759    1.00   0.00  0.00  0.00  1.00  0.00  0.00  0.00  0.06  0.00
  YS02001765YS02001762    1.00   0.00  0.00  0.00  1.00  0.00  0.00  0.00  0.18  0.00
  YS02001767YS02001765    1.00   0.00  0.00  0.00  1.00  0.00  0.00  0.00  0.00  0.00
  YS02001770YS02001767    1.00   0.00  0.00  0.00  1.00  0.00  0.00  0.00  0.00  0.00
  YS02001774YS02001770    1.00   0.00  0.10  0.00  0.90  0.00  0.00  0.00  0.04  0.00
  YS02001779YS02001774    1.00   0.00  0.00  0.00  1.00  0.00  0.00  0.00  0.80  0.00
  YS02001783YS02001784    1.00   0.00  0.15  0.00  0.85  0.00  0.00  0.00  0.58  0.00
  YS02001784YS02001785    1.00   0.00  0.00  0.00  1.00  0.00  0.00  0.00  0.19  0.00
  YS02001786YS02001788    1.00   0.00  0.00  0.00  0.76  0.24  0.00  0.00  0.00  0.00
  YS02001788YS02001790    1.00   0.00  0.00  0.00  0.23  0.77  0.00  0.00  0.85  0.00
  YS02001790YS02001791    1.00   0.00  0.00  0.00  0.08  0.92  0.00  0.00  0.09  0.00
  YS02001791YS02001793    1.00   0.00  0.00  0.00  0.08  0.92  0.00  0.00  0.01  0.00
  YS02001793JiankangQianchi    1.00   0.00  0.00  0.00  0.99  0.01  0.00  0.00  0.92  0.00
  YS02001882YS02001884    1.00   0.12  0.01  0.00  0.87  0.00  0.00  0.00  0.00  0.00
  YS02001884YS02001887    1.00   0.04  0.04  0.00  0.92  0.00  0.00  0.00  0.00  0.00
  YS02001887YS02001890    1.00   0.00  0.00  0.00  0.98  0.00  0.02  0.00  0.00  0.00
  YS02001890YS02001895    1.00   0.00  0.13  0.00  0.87  0.00  0.00  0.00  0.00  0.00
  YS02001895YS02001898    1.00   0.13  0.00  0.00  0.85  0.00  0.01  0.00  0.00  0.00
  YS02001898YS02001901    1.00   0.13  0.00  0.00  0.86  0.00  0.00  0.00  0.01  0.00
  YS02001901YS02001904    1.00   0.13  0.00  0.00  0.87  0.00  0.00  0.00  0.00  0.00
  YS02001904YS02001907    1.00   0.00  0.13  0.00  0.87  0.00  0.00  0.00  0.00  0.00
  YS02001907YS02006553    1.00   0.00  0.02  0.00  0.98  0.00  0.00  0.00  0.00  0.00
  YS02001910YS02001907    1.00   0.00  0.00  0.00  0.98  0.00  0.00  0.02  0.12  0.00
  YS02001915YS02001910    1.00   0.00  0.00  0.00  0.97  0.03  0.00  0.00  0.18  0.00
  YS02001918YS02001915    1.00   0.00  0.00  0.00  0.98  0.01  0.00  0.00  0.80  0.00
  YS02001920YS02001918    1.00   0.00  0.00  0.00  1.00  0.00  0.00  0.00  0.00  0.00
  YS02001923YS02001920    1.00   0.00  0.00  0.00  1.00  0.00  0.00  0.00  0.96  0.00
  YS02001926YS02001923    1.00   0.00  0.05  0.00  0.03  0.00  0.92  0.00  0.00  0.00
  YS02001929YS02001926    1.00   0.00  0.09  0.00  0.91  0.00  0.00  0.00  0.85  0.00
  YS02006553YS02006556    1.00   0.01  0.00  0.00  0.99  0.00  0.00  0.00  0.03  0.00
  YS02006556YS02006558    1.00   0.00  0.00  0.00  1.00  0.00  0.00  0.00  0.00  0.00
  YS02006558YS02006561    1.00   0.15  0.00  0.00  0.03  0.82  0.00  0.00  0.18  0.00
  YS02006561YS02001783    1.00   0.15  0.00  0.00  0.10  0.75  0.00  0.00  0.72  0.00
  YS02163301YS02001633    1.00   0.00  0.12  0.00  0.88  0.00  0.00  0.00  0.00  0.00
  YS02163601YS02164001    1.00   0.00  0.06  0.00  0.94  0.00  0.00  0.00  0.00  0.00
  YS02164001YS02001641    1.00   0.00  0.05  0.00  0.94  0.00  0.00  0.00  0.06  0.00
  YSB1154YSB6556          1.00   0.09  0.00  0.00  0.91  0.00  0.00  0.00  0.02  0.00
  YSB1171HS02004479       1.00   0.03  0.00  0.00  0.96  0.00  0.00  0.01  0.11  0.00
  YSB1174YSB1171          1.00   0.04  0.03  0.00  0.93  0.00  0.00  0.00  0.00  0.00
  YSB6556YSB1171          1.00   0.03  0.06  0.00  0.91  0.00  0.00  0.00  0.00  0.00
  
  
  *************************
  Conduit Surcharge Summary
  *************************
  
  ----------------------------------------------------------------------------
                                                           Hours        Hours 
                         --------- Hours Full --------   Above Full   Capacity
  Conduit                Both Ends  Upstream  Dnstream   Normal Flow   Limited
  ----------------------------------------------------------------------------
  HS02004478WS02006287        0.24      0.24      0.39      0.01         0.01
  HS02004479HS02004480        0.39      0.39      0.41      0.01         0.01
  HS02004480HS02004478        0.34      0.39      0.34      1.30         0.34
  HS02004770HS02004777        0.31      0.31      0.32      0.08         0.05
  HS02004777HS02004785        0.27      0.27      0.32      0.01         0.01
  HS02004785HS02004788        0.26      0.27      0.26      0.98         0.25
  HS02004788HS02004792        0.26      0.26      0.36      0.01         0.01
  HS02004792HS02004799        0.36      0.36      0.46      0.01         0.01
  HS02004799HS02004480        0.39      0.39      0.46      0.52         0.01
  HS02004802HS02004478        0.35      0.35      0.40      0.01         0.01
  HS02004807HS02004802        0.38      0.38      0.39      0.08         0.08
  HS02004817HS02004807        0.38      0.38      0.80      0.01         0.01
  HS02004817HS02004824        0.26      0.26      0.80      0.01         0.01
  HS02004824HS02004830        0.24      0.24      0.26      0.01         0.01
  HS02004830HS02004837        0.21      0.21      0.24      0.01         0.01
  HS02004837HS02004842        0.21      0.21      0.32      0.01         0.01
  HS02004842HS02004848        0.17      0.17      0.32      0.01         0.01
  HS02004848HS02004852        0.17      0.17      0.20      0.03         0.01
  HS02004852HS02004856        0.19      0.20      0.21      0.02         0.01
  HS02004856HS02004862        0.17      0.17      0.21      0.01         0.01
  HS02004862HS02004870        0.21      0.21      0.23      0.03         0.02
  HS02004870HS02004876        0.23      0.23      0.29      0.01         0.01
  HS02004876HS02004881        0.27      0.29      0.27      1.00         0.27
  HS02004881HS02006253        0.27      0.27      0.97      0.01         0.01
  HS02004901HS02004770        0.31      0.31      0.32      0.01         0.01
  WS02003072WS02003073        0.01      0.01      0.01      1.79         0.01
  WS02004401WS02004402        1.06      1.06      1.07      0.93         0.93
  WS02004402WS02004403        1.07      1.07      1.07      1.06         1.05
  WS02004403WS02004404        1.07      1.07      1.16      0.01         0.01
  WS02004404WS02004405        1.14      1.16      1.14      2.68         1.14
  WS02004405WS02004406        1.12      1.14      1.12      1.32         1.12
  WS02004406WS02004407        0.01      0.01      1.12      0.01         0.01
  WS02004407WS02004409        0.01      0.01      0.62      0.01         0.01
  WS02004409WS02004410        0.60      0.62      0.60      1.01         0.60
  WS02004410WS02004411        0.55      0.60      0.55      1.04         0.55
  WS02004411WS02004412        0.48      0.55      0.48      1.06         0.48
  WS02004412WS02004413        0.48      0.48      0.86      0.01         0.01
  WS02004413WS02003067        0.01      0.01      0.86      0.01         0.01
  WS02006109WS02006110        1.27      1.27      1.59      1.27         0.01
  WS02006110WS02006113        0.82      0.82      1.57      0.19         0.01
  WS02006111WS02006112        0.80      0.80      1.72      0.01         0.01
  WS02006112WS02006115        1.02      1.02      1.36      0.01         0.01
  WS02006113WS02006111        0.81      0.82      0.81      0.90         0.81
  WS02006115WS02006116        1.03      1.03      1.03      1.01         1.00
  WS02006116WS02004401        1.06      1.06      1.06      1.04         1.04
  WS02006228WS02006109        1.55      1.59      1.55      1.82         1.55
  WS02006229WS02006228        1.55      1.56      1.55      1.69         1.55
  WS02006230WS02006229        1.62      1.62      1.62      2.61         0.77
  WS02006231WS02006230        1.12      1.12      1.15      2.14         0.64
  WS02006232WS02006231        1.14      1.14      1.31      0.01         0.09
  WS02006234WS02006232        1.19      1.19      1.31      0.01         0.01
  WS02006235WS02006234        1.15      1.16      1.19      1.79         0.61
  WS02006238WS02006235        1.20      1.20      1.24      0.01         0.21
  WS02006239WS02006238        1.19      1.19      1.21      0.55         0.02
  WS02006240WS02006239        1.13      1.13      1.14      0.55         0.02
  WS02006242WS02006240        1.12      1.12      1.18      0.84         0.55
  WS02006243WS02006242        1.08      1.08      1.16      0.01         0.01
  WS02006245WS02006243        1.05      1.05      1.07      0.04         0.01
  WS02006247WS02006245        1.05      1.05      1.05      1.45         0.26
  WS02006248WS02006247        1.03      1.03      1.05      0.01         0.01
  WS02006249WS02006248        1.02      1.02      1.03      0.67         0.01
  WS02006251WS02006249        1.02      1.02      1.03      0.95         0.92
  WS02006252WS02006251        1.05      1.05      1.07      0.67         0.01
  WS02006253WS02006251        1.02      1.02      1.02      0.48         0.01
  WS02006256WS02006235        2.28      2.30      7.98      0.51         0.01
  WS02006280WS02006229        0.48      0.48      0.59      0.01         0.01
  WS02006284WS02006280        0.41      0.41      0.47      0.01         0.01
  WS02006287WS02006284        0.34      0.34      0.42      0.11         0.10
  YS02001580YS02001583        0.28      0.28      0.31      0.01         0.01
  YS02001583YS02001586        0.28      0.28      0.38      0.01         0.01
  YS02001586YS02001590        0.38      0.38      0.43      0.01         0.01
  YS02001590YS02001593        0.43      0.43      0.45      0.45         0.01
  YS02001593YS02001596        0.44      0.44      0.52      0.01         0.01
  YS02001596YS02001600        0.56      0.56      0.63      0.01         0.01
  YS02001600YS02001601        0.68      0.68      0.93      0.01         0.01
  YS02001601YS02001602        0.82      0.82      0.96      0.63         0.01
  YS02001602YS02001605        0.78      0.78      0.82      1.82         0.01
  YS02001605YS02001607        0.74      0.78      0.74      0.88         0.74
  YS02001607YS02001610        0.41      0.41      0.43      0.01         0.01
  YS02001610YS02001613        0.40      0.40      0.43      0.01         0.01
  YS02001613YS02001616        0.37      0.37      0.40      0.01         0.01
  YS02001616YS02001619        0.36      0.36      0.37      0.01         0.01
  YS02001619YS02001622        0.36      0.36      0.36      0.45         0.33
  YS02001622YS02001625        0.36      0.36      0.50      0.01         0.01
  YS02001625YS02001629        0.33      0.33      0.50      0.01         0.01
  YS02001629YS02163301        0.49      0.49      0.50      0.06         0.11
  YS02001633YS02163601        0.51      0.51      0.54      0.24         0.23
  YS02001641YS02001644        0.43      0.46      0.43      1.01         0.43
  YS02001644YS02001647        0.28      0.28      0.43      0.02         0.01
  YS02001647YS02001649        0.28      0.28      0.36      0.01         0.01
  YS02001649YS02001757        0.36      0.36      0.40      0.05         0.04
  YS02001652YS02001649        0.25      0.25      0.36      0.01         0.01
  YS02001655YS02001652        0.15      0.15      0.24      0.01         0.01
  YS02001658YS02001655        0.06      0.06      0.15      0.01         0.01
  YS02001661YS02001658        0.01      0.01      0.06      0.01         0.01
  YS02001664YS02001661        0.01      0.01      0.01      0.01         0.01
  YS02001745YS02001748        0.01      0.01      0.02      0.01         0.01
  YS02001748YS02001751        0.04      0.04      0.09      0.01         0.01
  YS02001751YS02001754        0.09      0.09      0.18      0.01         0.01
  YS02001754YS02001757        0.20      0.20      0.40      0.01         0.01
  YS02001757CaochengTiaoxuchi        0.40      0.40      5.73      0.15         0.14
  YS02001759YS02001757        0.33      0.33      0.40      0.01         0.01
  YS02001762YS02001759        0.31      0.31      0.33      0.01         0.02
  YS02001765YS02001762        0.28      0.28      0.31      0.01         0.01
  YS02001767YS02001765        0.26      0.26      0.28      0.01         0.01
  YS02001770YS02001767        0.26      0.26      0.26      0.24         0.16
  YS02001774YS02001770        0.24      0.24      0.29      0.01         0.01
  YS02001779YS02001774        0.18      0.18      0.29      0.01         0.01
  YS02001783YS02001784        0.24      0.26      0.25      0.37         0.24
  YS02001784YS02001785        0.16      0.25      0.16      0.54         0.16
  YS02001786YS02001788        0.01      0.17      0.01      0.45         0.01
  YS02001788YS02001790        0.01      0.01      0.28      0.01         0.01
  YS02001790YS02001791        0.28      0.28      0.34      0.23         0.01
  YS02001791YS02001793        0.34      0.34      0.47      0.01         0.01
  YS02001793JiankangQianchi        0.44      0.44      7.70      0.01         0.01
  YS02001882YS02001884        0.22      0.22      0.23      0.01         0.01
  YS02001884YS02001887        0.25      0.25      0.26      0.01         0.01
  YS02001887YS02001890        0.27      0.27      0.28      0.01         0.01
  YS02001890YS02001895        0.21      0.21      0.29      0.01         0.01
  YS02001895YS02001898        0.21      0.21      0.21      0.01         0.01
  YS02001898YS02001901        0.21      0.21      0.25      0.01         0.01
  YS02001901YS02001904        0.24      0.24      0.25      0.01         0.01
  YS02001904YS02001907        0.24      0.24      0.44      0.01         0.01
  YS02001907YS02006553        0.54      0.54      0.58      0.01         0.01
  YS02001910YS02001907        0.28      0.28      0.43      0.01         0.01
  YS02001915YS02001910        0.22      0.22      0.28      0.01         0.01
  YS02001918YS02001915        0.16      0.16      0.22      0.01         0.01
  YS02001920YS02001918        0.16      0.16      0.17      0.01         0.01
  YS02001923YS02001920        0.11      0.11      0.17      0.01         0.01
  YS02001926YS02001923        0.01      0.01      0.01      0.01         0.01
  YS02001929YS02001926        0.01      0.01      0.01      0.01         0.01
  YS02006553YS02006556        0.36      0.36      0.44      0.01         0.01
  YS02006556YS02006558        0.40      0.40      0.45      0.01         0.01
  YS02006558YS02006561        0.18      0.35      0.18      0.50         0.18
  YS02006561YS02001783        0.12      0.12      0.26      0.01         0.01
  YS02163301YS02001633        0.50      0.50      0.53      0.01         0.01
  YS02163601YS02164001        0.47      0.47      0.54      0.06         0.01
  YS02164001YS02001641        0.46      0.47      0.46      0.48         0.39
  YSB1154YSB6556              0.44      0.44      0.54      0.01         0.01
  YSB1171HS02004479           0.35      0.35      0.54      0.01         0.01
  YSB1174YSB1171              0.49      0.49      0.73      0.01         0.01
  YSB6556YSB1171              0.44      0.44      0.86      0.01         0.01
  
  
  ***************
  Pumping Summary
  ***************
  
  ---------------------------------------------------------------------------------------------------------
                                                  Min       Avg       Max     Total     Power    % Time Off
                        Percent   Number of      Flow      Flow      Flow    Volume     Usage    Pump Curve
  Pump                 Utilized   Start-Ups       LPS       LPS       LPS  10^6 ltr     Kw-hr    Low   High
  ---------------------------------------------------------------------------------------------------------
  CC-R1                   12.71           4      0.00    683.00    683.00     2.501     46.48    0.0    8.2
  CC-R2                    7.81           2      0.00    683.00    683.00     1.537     28.78    0.0   13.3
  CC-S1                   96.88           3      0.00     27.74    200.00     0.590      3.56    0.0    0.0
  CC-S2                   92.43           5      0.00     72.88    200.00     1.107      6.73    0.0    0.0
  JK-R1                   11.35           7      0.00    399.26   1000.00     1.191     13.40    0.0    0.0
  JK-R2                    9.13           3      0.00    242.46   1000.00     0.552      5.56    0.0    0.0
  JK-S                    25.65           8      0.00     65.44    300.00     0.702      6.52    0.0    0.0
  XR-1                    97.91           2      0.00     95.00     95.00     2.679      9.63    0.0    0.0
  XR-2                    93.95           2      0.00     95.00     95.00     2.570      8.79    0.0    0.0
  XR-3                     0.00           1      0.00     95.00     95.00     0.000      0.00    0.0    0.0
  XR-4                     0.00           1      0.00     95.00     95.00     0.000      0.00    0.0    0.0
  

  Analysis begun on:  Sun Jun 25 21:04:15 2023
  Analysis ended on:  Sun Jun 25 21:04:27 2023
  Total elapsed time: 00:00:12