
  OWA STORM WATER MANAGEMENT MODEL - VERSION v5.1.14 (OWA 2022-07-31)
  --------------------------------------------------------------

  WARNING 04: minimum elevation drop used for Conduit WS02004404WS02004405
  WARNING 03: negative offset ignored for Link YS02001904YS02001907
  
  *********************************************************
  NOTE: The summary statistics displayed in this report are
  based on results found at every computational time step,  
  not just on results from each reporting time step.
  *********************************************************
  
  ****************
  Analysis Options
  ****************
  Flow Units ............... LPS
  Process Models:
    Rainfall/Runoff ........ YES
    RDII ................... NO
    Snowmelt ............... NO
    Groundwater ............ NO
    Flow Routing ........... YES
    Ponding Allowed ........ NO
    Water Quality .......... NO
  Infiltration Method ...... HORTON
  Flow Routing Method ...... DYNWAVE
  Surcharge Method ......... EXTRAN
  Starting Date ............ 08/28/2015 08:00:00
  Ending Date .............. 08/28/2015 16:00:00
  Antecedent Dry Days ...... 8.0
  Report Time Step ......... 00:01:00
  Wet Time Step ............ 00:01:00
  Dry Time Step ............ 00:01:00
  Routing Time Step ........ 30.00 sec
  Variable Time Step ....... YES
  Maximum Trials ........... 8
  Number of Threads ........ 2
  Head Tolerance ........... 0.001500 m
  
  
  **************************        Volume         Depth
  Runoff Quantity Continuity     hectare-m            mm
  **************************     ---------       -------
  Initial LID Storage ......         0.072         1.184
  Total Precipitation ......         2.553        42.149
  Evaporation Loss .........         0.000         0.000
  Infiltration Loss ........         0.192         3.163
  Surface Runoff ...........         1.884        31.098
  Final Storage ............         0.551         9.090
  Continuity Error (%) .....        -0.041
  
  
  **************************        Volume        Volume
  Flow Routing Continuity        hectare-m      10^6 ltr
  **************************     ---------     ---------
  Dry Weather Inflow .......         0.630         6.296
  Wet Weather Inflow .......         1.884        18.839
  Groundwater Inflow .......         0.000         0.000
  RDII Inflow ..............         0.000         0.000
  External Inflow ..........         0.105         1.045
  External Outflow .........         1.911        19.111
  Flooding Loss ............         0.481         4.812
  Evaporation Loss .........         0.000         0.000
  Exfiltration Loss ........         0.000         0.000
  Initial Stored Volume ....         0.303         3.031
  Final Stored Volume ......         0.534         5.342
  Continuity Error (%) .....        -0.184
  
  
  *************************
  Highest Continuity Errors
  *************************
  Node YS02001583 (-12.27%)
  Node YS02001774 (5.29%)
  Node YS02001884 (5.11%)
  Node HS02004842 (1.83%)
  Node HS02004817 (1.56%)
  
  
  ***************************
  Time-Step Critical Elements
  ***************************
  Link WS02006252WS02006251 (66.77%)
  Link WS02006280WS02006229 (15.31%)
  Link WS02006238WS02006235 (6.24%)
  Link YS02001791YS02001793 (2.54%)
  Link YS02006556YS02006558 (1.04%)
  
  
  ********************************
  Highest Flow Instability Indexes
  ********************************
  Link WS02006113WS02006111 (20)
  Link WS02006256WS02006235 (13)
  Link WS02004404WS02004405 (12)
  Link WS02006238WS02006235 (11)
  Link WS02006252WS02006251 (11)
  
  
  *************************
  Routing Time Step Summary
  *************************
  Minimum Time Step           :     0.01 sec
  Average Time Step           :     2.01 sec
  Maximum Time Step           :     6.46 sec
  Percent in Steady State     :    -0.00
  Average Iterations per Step :     2.83
  Percent Not Converging      :     8.51
  
  
  ***************************
  Subcatchment Runoff Summary
  ***************************
  
  ------------------------------------------------------------------------------------------------------------------------------
                            Total      Total      Total      Total     Imperv       Perv      Total       Total     Peak  Runoff
                           Precip      Runon       Evap      Infil     Runoff     Runoff     Runoff      Runoff   Runoff   Coeff
  Subcatchment                 mm         mm         mm         mm         mm         mm         mm    10^6 ltr      LPS
  ------------------------------------------------------------------------------------------------------------------------------
  sub0                      42.15       0.00       0.00       0.98      37.95       1.98      39.92        0.03    20.90   0.947
  sub1                      42.15       0.00       0.00       1.46      32.51       2.70      35.21        0.23   120.57   0.835
  sub10                     42.15       0.00       0.00       0.93      30.47       1.81      32.27        0.36   194.23   0.766
  sub11                     42.15       0.00       0.00       0.86      28.32       1.69      30.01        0.35   205.58   0.712
  sub12                     42.15       0.00       0.00       1.50      28.79       2.95      31.74        0.28   174.43   0.753
  sub14                     42.15       0.00       0.00       0.93      26.82       1.81      28.63        0.27   157.02   0.679
  sub15                     42.15       0.00       0.00       4.11      24.11       6.57      30.68        0.53   255.33   0.728
  sub16                     42.15       0.00       0.00       4.40      23.52       7.57      31.10        0.33   173.24   0.738
  sub17                     42.15       0.00       0.00       4.70      25.96       7.93      33.89        0.29   150.78   0.804
  sub2                      42.15       0.00       0.00       6.37      23.76       8.07      31.83        0.30   117.81   0.755
  sub22                     42.15       0.00       0.00       7.22      22.51      10.33      32.84        2.07   911.78   0.779
  sub23                     42.15       0.00       0.00       5.47      23.18       8.60      31.78        1.52   729.23   0.754
  sub3                      42.15       0.00       0.00       6.77      23.52       7.54      31.06        0.70   250.71   0.737
  sub4                      42.15       0.00       0.00       1.56      31.98       2.54      34.52        0.72   276.87   0.819
  sub5                      42.15       0.00       0.00       0.83      31.45       1.62      33.07        0.37   199.32   0.784
  sub60                     42.15       0.00       0.00       1.33      27.70       2.57      30.27        0.40   234.73   0.718
  sub61                     42.15       0.00       0.00       2.04      27.67       3.82      31.50        0.58   335.34   0.747
  sub62                     42.15       0.00       0.00       0.91      29.50       1.75      31.24        0.86   463.26   0.741
  sub63                     42.15       0.00       0.00       3.69      23.70       6.32      30.03        0.68   359.48   0.712
  sub64                     42.15       0.00       0.00       1.78      26.98       3.15      30.13        0.72   363.31   0.715
  sub65                     42.15       0.00       0.00       1.63      29.12       2.87      31.99        0.88   421.51   0.759
  sub66                     42.15       0.00       0.00       4.21      22.90       5.49      28.39        1.32   516.15   0.674
  sub67                     42.15       0.00       0.00       0.91      30.25       1.81      32.06        0.60   373.52   0.761
  sub68                     42.15       0.00       0.00       1.56      26.71       2.93      29.64        0.82   457.33   0.703
  sub69                     42.15       0.00       0.00       1.39      28.32       3.62      31.93        1.18   560.44   0.758
  sub7                      42.15       0.00       0.00       0.99      28.75       1.95      30.70        0.10    62.24   0.728
  sub70                     42.15       0.00       0.00       4.52      22.67       7.21      29.88        0.86   303.82   0.709
  sub71                     42.15       0.00       0.00       0.83      26.79       1.58      28.37        0.74   374.63   0.673
  sub72                     42.15       0.00       0.00       0.79      28.93       1.46      30.39        0.42   188.04   0.721
  sub8                      42.15       0.00       0.00       0.97      27.94       1.89      29.83        0.19   110.65   0.708
  sub9                      42.15       0.00       0.00       0.94      27.08       1.83      28.91        0.14    80.55   0.686
  

  ***********************
  LID Performance Summary
  ***********************

  --------------------------------------------------------------------------------------------------------------------
                                         Total      Evap     Infil   Surface    Drain    Initial     Final  Continuity
                                        Inflow      Loss      Loss   Outflow   Outflow   Storage   Storage       Error
  Subcatchment      LID Control             mm        mm        mm        mm        mm        mm        mm           %
  --------------------------------------------------------------------------------------------------------------------
  sub1              GreenRoof            42.15      0.00      0.00      0.00      0.00      7.05     49.25       -0.11
  sub10             GreenRoof            42.15      0.00      0.00      0.00      0.00      7.05     49.25       -0.11
  sub11             GreenRoof            42.15      0.00      0.00      0.00      0.00      7.05     49.25       -0.11
  sub12             GreenRoof            42.15      0.00      0.00      0.00      0.00      7.05     49.25       -0.11
  sub14             GreenRoof            42.15      0.00      0.00      0.00      0.00      7.05     49.25       -0.11
  sub15             GreenRoof            42.15      0.00      0.00      0.00      0.00      7.05     49.25       -0.11
  sub16             GreenRoof            42.15      0.00      0.00      0.00      0.00      7.05     49.25       -0.11
  sub17             GreenRoof            42.15      0.00      0.00      0.00      0.00      7.05     49.25       -0.11
  sub2              GreenRoof            42.15      0.00      0.00      0.00      0.00      7.05     49.25       -0.11
  sub22             GreenRoof            42.15      0.00      0.00      0.00      0.00      7.05     49.25       -0.11
  sub23             GreenRoof            42.15      0.00      0.00      0.00      0.00      7.05     49.25       -0.11
  sub3              GreenRoof            42.15      0.00      0.00      0.00      0.00      7.05     49.25       -0.11
  sub4              GreenRoof            42.15      0.00      0.00      0.00      0.00      7.05     49.25       -0.11
  sub5              GreenRoof            42.15      0.00      0.00      0.00      0.00      7.05     49.25       -0.11
  sub60             GreenRoof            42.15      0.00      0.00      0.00      0.00      7.05     49.25       -0.11
  sub61             GreenRoof            42.15      0.00      0.00      0.00      0.00      7.05     49.25       -0.11
  sub62             GreenRoof            42.15      0.00      0.00      0.00      0.00      7.05     49.25       -0.11
  sub63             GreenRoof            42.15      0.00      0.00      0.00      0.00      7.05     49.25       -0.11
  sub64             GreenRoof            42.15      0.00      0.00      0.00      0.00      7.05     49.25       -0.11
  sub65             GreenRoof            42.15      0.00      0.00      0.00      0.00      7.05     49.25       -0.11
  sub66             GreenRoof            42.15      0.00      0.00      0.00      0.00      7.05     49.25       -0.11
  sub67             GreenRoof            42.15      0.00      0.00      0.00      0.00      7.05     49.25       -0.11
  sub68             GreenRoof            42.15      0.00      0.00      0.00      0.00      7.05     49.25       -0.11
  sub69             GreenRoof            42.15      0.00      0.00      0.00      0.00      7.05     49.25       -0.11
  sub7              GreenRoof            42.15      0.00      0.00      0.00      0.00      7.05     49.25       -0.11
  sub70             GreenRoof            42.15      0.00      0.00      0.00      0.00      7.05     49.25       -0.11
  sub71             GreenRoof            42.15      0.00      0.00      0.00      0.00      7.05     49.25       -0.11
  sub72             GreenRoof            42.15      0.00      0.00      0.00      0.00      7.05     49.25       -0.11
  sub8              GreenRoof            42.15      0.00      0.00      0.00      0.00      7.05     49.25       -0.11
  sub9              GreenRoof            42.15      0.00      0.00      0.00      0.00      7.05     49.25       -0.11
  
  ******************
  Node Depth Summary
  ******************
  
  ---------------------------------------------------------------------------------
                                 Average  Maximum  Maximum  Time of Max    Reported
                                   Depth    Depth      HGL   Occurrence   Max Depth
  Node                 Type       Meters   Meters   Meters  days hr:min      Meters
  ---------------------------------------------------------------------------------
  HS02004478           JUNCTION     0.16     1.60    10.82     0  01:42        1.30
  HS02004479           JUNCTION     0.24     1.73    10.94     0  01:42        1.51
  HS02004480           JUNCTION     0.20     1.81    11.05     0  01:40        1.81
  HS02004770           JUNCTION     0.22     1.42    11.25     0  01:37        1.42
  HS02004777           JUNCTION     0.24     1.48    11.28     0  01:37        1.48
  HS02004785           JUNCTION     0.14     1.49    11.39     0  01:37        1.49
  HS02004788           JUNCTION     0.10     1.42    11.32     0  01:37        1.42
  HS02004792           JUNCTION     0.15     1.60    11.12     0  01:36        1.60
  HS02004799           JUNCTION     0.26     1.76    10.97     0  01:38        1.76
  HS02004802           JUNCTION     0.26     1.81    10.94     0  01:42        1.40
  HS02004807           JUNCTION     0.22     1.92    11.09     0  01:42        1.37
  HS02004817           JUNCTION     0.53     2.44    11.29     0  01:42        1.69
  HS02004824           JUNCTION     0.10     2.01    11.41     0  01:42        1.14
  HS02004830           JUNCTION     0.10     2.03    11.50     0  01:42        1.07
  HS02004837           JUNCTION     0.08     2.04    11.62     0  01:42        0.95
  HS02004842           JUNCTION     0.38     2.22    11.49     0  01:42        1.79
  HS02004848           JUNCTION     0.06     2.07    11.67     0  01:42        2.07
  HS02004852           JUNCTION     0.06     2.09    11.61     0  01:42        1.71
  HS02004856           JUNCTION     0.12     2.07    11.50     0  01:41        1.01
  HS02004862           JUNCTION     0.08     2.00    11.38     0  01:42        1.00
  HS02004870           JUNCTION     0.07     2.10    11.38     0  01:42        1.03
  HS02004876           JUNCTION     0.11     2.26    11.29     0  01:42        1.20
  HS02004881           JUNCTION     0.06     2.04    11.07     0  01:42        1.10
  HS02004901           JUNCTION     0.22     1.42    11.24     0  01:37        1.42
  WS02001211           JUNCTION     0.63     0.85     5.69     0  01:45        0.85
  WS02001212           JUNCTION     0.37     0.63     5.69     0  01:44        0.61
  WS02001213           JUNCTION     0.59     0.95     5.71     0  01:44        0.86
  WS02003059           JUNCTION     0.65     0.96     5.65     0  01:46        0.96
  WS02003060           JUNCTION     0.36     0.68     5.61     0  01:47        0.68
  WS02003066           JUNCTION     0.21     0.45     6.01     0  01:39        0.44
  WS02003067           JUNCTION     0.51     0.94     6.26     0  01:39        0.88
  WS02003069           JUNCTION     0.41     0.77     5.35     0  01:48        0.77
  WS02003072           JUNCTION     0.47     0.81     5.18     0  01:46        0.80
  WS02003073           JUNCTION     0.28     0.51     4.58     0  01:47        0.51
  WS02004138           JUNCTION     0.13     0.14     7.39     0  00:32        0.14
  WS02004139           JUNCTION     0.57     0.77     5.68     0  01:43        0.77
  WS02004401           JUNCTION     0.70     2.26     8.26     0  01:40        2.26
  WS02004402           JUNCTION     0.72     2.17     8.13     0  01:40        2.17
  WS02004403           JUNCTION     0.73     2.01     7.94     0  01:37        1.79
  WS02004404           JUNCTION     0.80     1.99     7.84     0  01:37        1.71
  WS02004405           JUNCTION     0.79     1.89     7.74     0  01:37        1.59
  WS02004406           JUNCTION     0.78     1.82     7.65     0  01:37        1.49
  WS02004407           JUNCTION     0.22     0.85     7.16     0  01:41        0.84
  WS02004409           JUNCTION     0.47     1.33     7.10     0  01:41        1.32
  WS02004410           JUNCTION     0.48     1.25     6.97     0  01:41        1.24
  WS02004411           JUNCTION     0.49     1.31     6.99     0  01:39        1.16
  WS02004412           JUNCTION     0.50     1.21     6.85     0  01:39        1.08
  WS02004413           JUNCTION     0.64     1.82     7.29     0  01:38        1.13
  WS02006109           JUNCTION     0.85     2.64     9.26     0  01:37        2.64
  WS02006110           JUNCTION     0.80     2.76     9.34     0  01:37        2.62
  WS02006111           JUNCTION     0.34     2.68     9.39     0  01:37        1.85
  WS02006112           JUNCTION     0.89     2.68     8.56     0  01:37        2.68
  WS02006113           JUNCTION     0.40     2.73     9.62     0  01:37        2.07
  WS02006115           JUNCTION     0.61     2.36     8.50     0  01:37        2.32
  WS02006116           JUNCTION     0.68     2.30     8.34     0  01:40        2.30
  WS02006228           JUNCTION     0.88     3.03     9.68     0  01:37        2.95
  WS02006229           JUNCTION     0.88     3.25     9.94     0  01:37        3.10
  WS02006230           JUNCTION     0.82     2.65     9.39     0  01:37        2.65
  WS02006231           JUNCTION     0.57     2.20     9.32     0  01:55        2.20
  WS02006232           JUNCTION     0.66     2.18     9.22     0  01:37        2.18
  WS02006234           JUNCTION     0.55     1.96     9.12     0  01:36        1.96
  WS02006235           JUNCTION     0.56     2.00     9.16     0  01:36        1.99
  WS02006238           JUNCTION     0.58     2.07     9.21     0  01:36        2.01
  WS02006239           JUNCTION     0.53     2.03     9.24     0  02:15        1.90
  WS02006240           JUNCTION     0.49     2.10     9.39     0  02:35        1.77
  WS02006242           JUNCTION     0.53     1.55     8.82     0  01:36        1.55
  WS02006243           JUNCTION     0.43     1.48     8.90     0  01:36        1.37
  WS02006245           JUNCTION     0.42     1.56     9.04     0  01:36        1.27
  WS02006247           JUNCTION     0.43     1.47     8.97     0  01:36        1.23
  WS02006248           JUNCTION     0.38     1.10     8.69     0  01:36        1.10
  WS02006249           JUNCTION     0.41     1.09     8.69     0  01:37        1.09
  WS02006251           JUNCTION     0.44     2.21     9.88     0  01:37        2.03
  WS02006252           JUNCTION     0.30     1.50     9.74     0  00:00        1.49
  WS02006253           JUNCTION     0.49     3.21    10.86     0  01:42        2.43
  WS02006256           JUNCTION     0.84     2.35     9.28     0  00:00        2.35
  WS02006280           JUNCTION     0.21     1.83    10.10     0  01:37        1.62
  WS02006284           JUNCTION     0.49     2.08    10.48     0  01:37        1.75
  WS02006287           JUNCTION     0.22     1.76    10.71     0  01:42        1.48
  WSF200               JUNCTION     0.20     0.54     5.78     0  01:39        0.51
  YS02001580           JUNCTION     0.04     1.05     9.59     0  01:38        1.05
  YS02001583           JUNCTION     0.07     1.14     9.64     0  01:38        0.86
  YS02001586           JUNCTION     0.12     1.13     9.30     0  01:38        1.13
  YS02001590           JUNCTION     0.21     1.40     9.26     0  01:37        1.40
  YS02001593           JUNCTION     0.14     1.46     9.32     0  01:37        1.44
  YS02001596           JUNCTION     0.20     1.80     9.22     0  01:37        1.70
  YS02001600           JUNCTION     0.25     1.87     9.00     0  01:37        1.87
  YS02001601           JUNCTION     0.44     2.06     8.90     0  01:37        2.06
  YS02001602           JUNCTION     0.36     1.87     8.77     0  01:39        1.87
  YS02001605           JUNCTION     0.33     1.78     8.68     0  01:39        1.77
  YS02001607           JUNCTION     0.34     1.68     8.53     0  01:40        1.68
  YS02001610           JUNCTION     0.38     1.68     8.48     0  01:39        1.68
  YS02001613           JUNCTION     0.34     1.70     8.54     0  01:39        1.70
  YS02001616           JUNCTION     0.27     1.61     8.52     0  01:39        1.61
  YS02001619           JUNCTION     0.25     1.61     8.54     0  01:39        1.61
  YS02001622           JUNCTION     0.24     1.62     8.52     0  01:39        1.62
  YS02001625           JUNCTION     0.50     1.78     8.38     0  01:39        1.78
  YS02001629           JUNCTION     0.36     1.85     8.40     0  01:39        1.78
  YS02001633           JUNCTION     0.44     2.08     8.53     0  01:40        2.08
  YS02001641           JUNCTION     0.42     1.87     8.30     0  01:40        1.87
  YS02001644           JUNCTION     0.42     1.57     8.00     0  01:47        1.51
  YS02001647           JUNCTION     0.21     1.26     7.87     0  01:47        1.20
  YS02001649           JUNCTION     0.36     1.35     7.74     0  01:47        1.30
  YS02001652           JUNCTION     0.18     1.25     7.85     0  01:50        1.11
  YS02001655           JUNCTION     0.10     0.93     7.78     0  01:46        0.89
  YS02001658           JUNCTION     0.06     0.60     7.74     0  01:46        0.59
  YS02001661           JUNCTION     0.11     0.32     7.73     0  01:40        0.32
  YS02001664           JUNCTION     0.04     0.23     8.15     0  01:40        0.23
  YS02001745           JUNCTION     0.04     0.20     7.72     0  01:39        0.20
  YS02001748           JUNCTION     0.05     0.50     7.58     0  01:48        0.49
  YS02001751           JUNCTION     0.08     0.71     7.59     0  01:47        0.66
  YS02001754           JUNCTION     0.15     1.01     7.62     0  01:47        0.93
  YS02001757           JUNCTION     0.45     1.33     7.59     0  01:47        1.29
  YS02001759           JUNCTION     0.37     1.24     7.60     0  01:47        1.20
  YS02001762           JUNCTION     0.34     1.20     7.60     0  01:43        1.17
  YS02001765           JUNCTION     0.29     1.19     7.64     0  01:43        1.13
  YS02001767           JUNCTION     0.26     1.17     7.66     0  01:43        1.10
  YS02001770           JUNCTION     0.26     1.12     7.62     0  01:46        1.11
  YS02001774           JUNCTION     0.33     1.19     7.61     0  01:46        1.19
  YS02001779           JUNCTION     0.10     0.93     7.62     0  01:46        0.93
  YS02001783           JUNCTION     0.18     1.18     7.32     0  01:45        1.15
  YS02001784           JUNCTION     0.20     1.08     7.15     0  01:45        1.05
  YS02001786           JUNCTION     0.17     0.85     6.88     0  01:45        0.84
  YS02001788           JUNCTION     0.12     0.60     6.58     0  01:45        0.60
  YS02001790           JUNCTION     0.15     0.70     6.35     0  01:46        0.70
  YS02001791           JUNCTION     0.10     0.42     5.89     0  01:46        0.41
  YS02001793           JUNCTION     0.05     0.87     5.70     0  02:14        0.54
  YS02001882           JUNCTION     0.22     1.67     8.39     0  01:43        1.67
  YS02001884           JUNCTION     0.31     1.76     8.38     0  01:43        1.76
  YS02001887           JUNCTION     0.39     1.82     8.36     0  01:43        1.82
  YS02001890           JUNCTION     0.42     1.81     8.32     0  01:43        1.81
  YS02001895           JUNCTION     0.19     1.56     8.30     0  01:43        1.56
  YS02001898           JUNCTION     0.20     1.53     8.27     0  01:43        1.53
  YS02001901           JUNCTION     0.31     1.61     8.22     0  01:43        1.61
  YS02001904           JUNCTION     0.29     1.57     8.20     0  01:45        1.57
  YS02001907           JUNCTION     0.61     1.91     8.19     0  01:45        1.90
  YS02001910           JUNCTION     0.41     1.70     8.21     0  01:45        1.69
  YS02001915           JUNCTION     0.22     1.51     8.23     0  01:45        1.48
  YS02001918           JUNCTION     0.09     1.17     8.24     0  01:45        1.13
  YS02001920           JUNCTION     0.17     1.24     8.25     0  01:45        1.20
  YS02001923           JUNCTION     0.06     0.99     8.25     0  01:45        0.95
  YS02001926           JUNCTION     0.11     0.80     8.25     0  01:45        0.77
  YS02001929           JUNCTION     0.05     0.55     8.25     0  01:44        0.54
  YS02006553           JUNCTION     0.61     1.89     8.18     0  01:45        1.88
  YS02006556           JUNCTION     0.59     1.84     8.15     0  01:45        1.81
  YS02006558           JUNCTION     0.63     1.86     8.13     0  01:45        1.85
  YS02006561           JUNCTION     0.10     0.84     7.50     0  01:45        0.80
  YS02163301           JUNCTION     0.38     2.03     8.55     0  01:40        2.03
  YS02163601           JUNCTION     0.48     2.08     8.48     0  01:40        2.08
  YS02164001           JUNCTION     0.41     2.10     8.56     0  01:40        2.10
  YSB1154              JUNCTION     0.37     1.98    11.03     0  01:38        1.69
  YSB1171              JUNCTION     0.52     1.95    10.85     0  01:38        1.82
  YSB1174              JUNCTION     0.32     1.84    10.95     0  01:40        1.62
  YSB6556              JUNCTION     0.27     1.80    10.97     0  01:38        1.56
  CC-1                 OUTFALL      0.00     0.00     0.00     0  00:00        0.00
  CC-2                 OUTFALL      0.00     0.00     0.00     0  00:00        0.00
  JK-1                 OUTFALL      0.00     0.00     0.00     0  00:00        0.00
  JK-2                 OUTFALL      0.00     0.00     0.00     0  00:00        0.00
  WSC                  OUTFALL      0.28     0.51     1.18     0  01:48        0.51
  CC-storage           STORAGE      1.12     1.57     7.07     0  02:10        1.57
  JK-storage           STORAGE      2.98     4.68     5.48     0  02:15        4.68
  XR-storage           STORAGE      7.94     9.26     7.26     0  08:00        9.26
  
  
  *******************
  Node Inflow Summary
  *******************
  
  -------------------------------------------------------------------------------------------------
                                  Maximum  Maximum                  Lateral       Total        Flow
                                  Lateral    Total  Time of Max      Inflow      Inflow     Balance
                                   Inflow   Inflow   Occurrence      Volume      Volume       Error
  Node                 Type           LPS      LPS  days hr:min    10^6 ltr    10^6 ltr     Percent
  -------------------------------------------------------------------------------------------------
  HS02004478           JUNCTION      0.00  2187.00     0  01:38           0         6.4      -0.022
  HS02004479           JUNCTION      0.00   401.89     0  01:38           0        0.66       0.121
  HS02004480           JUNCTION      0.00  2171.05     0  01:39           0        5.16       0.040
  HS02004770           JUNCTION    729.23   846.57     0  01:37        1.52        1.75       0.173
  HS02004777           JUNCTION      0.03   852.11     0  01:37    0.000864        1.61       0.327
  HS02004785           JUNCTION      0.15   845.57     0  01:37     0.00432        1.61       0.029
  HS02004788           JUNCTION    257.00  1086.70     0  01:37       0.576        2.18      -0.040
  HS02004792           JUNCTION    912.06  1668.53     0  01:38        2.08        4.26       0.005
  HS02004799           JUNCTION    157.02  1802.87     0  01:39       0.273        4.52       0.060
  HS02004802           JUNCTION      0.00   319.25     0  02:06           0        1.28       0.292
  HS02004807           JUNCTION    205.58   514.65     0  01:38       0.349        1.34       0.325
  HS02004817           JUNCTION      0.60   518.59     0  01:38      0.0173        1.05       1.589
  HS02004824           JUNCTION    276.92   742.62     0  01:38       0.722        1.28       0.036
  HS02004830           JUNCTION      0.15   735.63     0  01:38     0.00432       0.805       0.111
  HS02004837           JUNCTION    200.58   973.41     0  01:38       0.539        1.02       0.068
  HS02004842           JUNCTION      0.00   880.27     0  01:39           0       0.698       1.863
  HS02004848           JUNCTION    250.71  1101.93     0  01:39       0.699        1.23      -0.008
  HS02004852           JUNCTION      0.00  1057.94     0  01:39           0        1.08      -0.030
  HS02004856           JUNCTION     80.55  1064.90     0  01:39       0.139        1.22       0.114
  HS02004862           JUNCTION    118.01  1177.32     0  01:40       0.302        1.52       0.006
  HS02004870           JUNCTION    110.65  1297.35     0  01:40       0.191        1.71       0.010
  HS02004876           JUNCTION    120.57  1442.49     0  01:40       0.234        1.94       0.040
  HS02004881           JUNCTION     62.24  1398.96     0  01:41       0.103        2.05       0.022
  HS02004901           JUNCTION    173.24   386.58     0  01:44       0.326       0.397       0.456
  WS02001211           JUNCTION      7.35   354.49     0  01:43       0.212        5.45       0.608
  WS02001212           JUNCTION      0.00   418.67     0  01:41           0        5.42       0.290
  WS02001213           JUNCTION      0.00   355.98     0  01:40           0        5.42       0.323
  WS02003059           JUNCTION      0.00   428.57     0  01:40           0        5.42       0.588
  WS02003060           JUNCTION     16.53  1514.55     0  01:47       0.476        12.9       0.114
  WS02003066           JUNCTION      0.00  1260.38     0  01:41           0        7.02       0.021
  WS02003067           JUNCTION      0.00  1247.53     0  01:41           0        7.03       0.063
  WS02003069           JUNCTION      0.32  1477.42     0  01:47     0.00922        12.8       0.122
  WS02003072           JUNCTION      0.00  1469.79     0  01:46           0        12.8       0.163
  WS02003073           JUNCTION      1.82  1475.59     0  01:47      0.0524        12.8       0.168
  WS02004138           JUNCTION      0.00   380.00     0  00:00           0        5.25       0.054
  WS02004139           JUNCTION      0.32   302.74     0  01:42     0.00924        5.26       0.509
  WS02004401           JUNCTION      0.00  1300.84     0  01:40           0        7.13       0.144
  WS02004402           JUNCTION      0.00  1310.70     0  01:40           0        7.12       0.147
  WS02004403           JUNCTION      0.00  1313.02     0  01:40           0        7.11       0.143
  WS02004404           JUNCTION      0.16  1319.05     0  01:40     0.00467         7.1       0.120
  WS02004405           JUNCTION      0.04  1312.42     0  01:40      0.0011         7.1       0.179
  WS02004406           JUNCTION      0.00  1320.82     0  01:40           0        7.08       0.295
  WS02004407           JUNCTION      0.00  1322.80     0  01:40           0        7.06       0.024
  WS02004409           JUNCTION      0.00  1330.90     0  01:38           0        7.06       0.048
  WS02004410           JUNCTION      0.00  1290.95     0  01:38           0        7.06       0.065
  WS02004411           JUNCTION      0.00  1247.47     0  01:41           0        7.05       0.085
  WS02004412           JUNCTION      0.00  1247.52     0  01:42           0        7.05       0.112
  WS02004413           JUNCTION      0.00  1247.51     0  01:42           0        7.04       0.189
  WS02006109           JUNCTION      1.23  1208.15     0  01:37      0.0354        6.91       0.147
  WS02006110           JUNCTION      0.00  1207.18     0  01:37           0        6.88       0.105
  WS02006111           JUNCTION      0.00  1197.04     0  01:37           0        6.87      -0.004
  WS02006112           JUNCTION    150.78  1285.13     0  01:39       0.291        7.16       0.247
  WS02006113           JUNCTION      0.00  1207.12     0  01:37           0        6.87       0.032
  WS02006115           JUNCTION      0.00  1284.90     0  01:39           0        7.14       0.094
  WS02006116           JUNCTION      0.00  1288.83     0  01:40           0        7.13       0.041
  WS02006228           JUNCTION      0.00  1208.03     0  01:37           0        6.88       0.071
  WS02006229           JUNCTION      0.00  2103.84     0  01:42           0        8.27       0.082
  WS02006230           JUNCTION     10.28   929.01     0  01:42       0.296        3.31       0.246
  WS02006231           JUNCTION      0.00   453.22     0  01:46           0        2.58      -0.163
  WS02006232           JUNCTION      0.00   453.34     0  01:46           0        2.57       0.255
  WS02006234           JUNCTION      0.00   453.13     0  01:43           0        2.54      -0.239
  WS02006235           JUNCTION      0.00   415.17     0  02:02           0        2.54       0.163
  WS02006238           JUNCTION      0.00   415.49     0  02:01           0         2.3      -0.331
  WS02006239           JUNCTION      0.00   415.24     0  02:02           0        2.26      -0.244
  WS02006240           JUNCTION      0.00   415.07     0  02:02           0        2.22       0.015
  WS02006242           JUNCTION      0.00   415.28     0  02:02           0        2.19       0.011
  WS02006243           JUNCTION      0.00   516.83     0  01:36           0        1.95      -0.088
  WS02006245           JUNCTION      0.00   411.61     0  03:23           0        1.94       0.571
  WS02006247           JUNCTION      0.00   562.83     0  01:36           0        1.94       0.014
  WS02006248           JUNCTION      0.00   634.64     0  01:36           0        2.05      -0.138
  WS02006249           JUNCTION      0.00  1312.99     0  01:43           0         3.9       0.236
  WS02006251           JUNCTION      0.08  1348.13     0  01:42     0.00222         3.9      -0.034
  WS02006252           JUNCTION      0.00   400.00     0  00:00           0         1.8      -0.071
  WS02006253           JUNCTION     20.90  1340.15     0  01:42      0.0323        2.11      -0.012
  WS02006256           JUNCTION      0.00   300.00     0  00:00           0       0.523      -1.007
  WS02006280           JUNCTION      0.00  2103.77     0  01:42           0        6.36      -0.042
  WS02006284           JUNCTION      0.10  2102.82     0  01:42     0.00275        6.36       0.017
  WS02006287           JUNCTION      0.00  2099.54     0  01:42           0        6.36       0.050
  WSF200               JUNCTION      0.00  1255.85     0  01:41           0        7.02       0.011
  YS02001580           JUNCTION      0.00   148.87     0  01:38           0      0.0043      -0.975
  YS02001583           JUNCTION      0.00   244.40     0  01:38           0      0.0146     -10.925
  YS02001586           JUNCTION    303.82   304.23     0  01:43       0.863       0.875       0.206
  YS02001590           JUNCTION      0.00   304.36     0  01:43           0        0.86      -0.035
  YS02001593           JUNCTION      0.00   304.42     0  01:43           0        0.86       0.015
  YS02001596           JUNCTION      0.00   304.16     0  01:43           0        0.86      -0.009
  YS02001600           JUNCTION      0.00   304.32     0  01:43           0        0.86       0.016
  YS02001601           JUNCTION    560.44   857.12     0  01:42        1.18        2.04       0.038
  YS02001602           JUNCTION      0.00   583.49     0  01:38           0        1.71       0.017
  YS02001605           JUNCTION      0.00   583.95     0  01:38           0        1.69       0.016
  YS02001607           JUNCTION      0.00   583.46     0  01:38           0        1.68       0.111
  YS02001610           JUNCTION      0.00   561.45     0  01:38           0        1.68       0.135
  YS02001613           JUNCTION      0.00   525.44     0  01:38           0        1.68       0.090
  YS02001616           JUNCTION      0.00   485.23     0  01:58           0        1.68       0.022
  YS02001619           JUNCTION    516.15   945.14     0  01:39        1.32           3      -0.001
  YS02001622           JUNCTION      0.00   944.62     0  01:39           0           3      -0.004
  YS02001625           JUNCTION      0.00   950.75     0  01:39           0           3       0.301
  YS02001629           JUNCTION      0.00   954.19     0  01:39           0        2.99       0.011
  YS02001633           JUNCTION    421.71  1336.37     0  01:40       0.887        3.87       0.124
  YS02001641           JUNCTION      0.00  1348.58     0  01:40           0        3.87       0.094
  YS02001644           JUNCTION    363.35  1729.47     0  01:40       0.725        4.59       0.097
  YS02001647           JUNCTION      0.00  1737.01     0  01:40           0        4.58       0.020
  YS02001649           JUNCTION      0.00  2060.24     0  01:40           0        5.26       0.159
  YS02001652           JUNCTION      0.00   438.07     0  01:40           0       0.686      -0.293
  YS02001655           JUNCTION      0.15   446.56     0  01:47     0.00443       0.686       0.214
  YS02001658           JUNCTION      0.00   358.97     0  01:40           0       0.681      -0.000
  YS02001661           JUNCTION      0.00   359.38     0  01:40           0       0.682       0.039
  YS02001664           JUNCTION    359.48   359.48     0  01:40       0.682       0.682      -0.006
  YS02001745           JUNCTION    234.73   234.73     0  01:39       0.398       0.398       0.211
  YS02001748           JUNCTION      0.04   234.73     0  01:39      0.0013       0.398      -0.234
  YS02001751           JUNCTION      0.01   287.45     0  01:48    0.000317         0.4       0.385
  YS02001754           JUNCTION      0.26   268.61     0  01:46     0.00749       0.409      -0.403
  YS02001757           JUNCTION      0.00  2701.13     0  01:41           0        7.13       0.577
  YS02001759           JUNCTION    335.38   674.41     0  01:44       0.579         1.5       0.398
  YS02001762           JUNCTION      0.00   407.82     0  01:44           0        0.92       0.512
  YS02001765           JUNCTION      0.00   408.72     0  01:44           0       0.915       0.430
  YS02001767           JUNCTION      0.54   453.32     0  01:43      0.0154       0.908       0.504
  YS02001770           JUNCTION    463.42   463.42     0  01:40       0.861       0.932       0.381
  YS02001774           JUNCTION      0.00   126.65     0  01:41           0      0.0831       5.591
  YS02001779           JUNCTION      0.01    93.77     0  01:43    0.000144      0.0243      -0.131
  YS02001783           JUNCTION      0.00  1115.38     0  01:45           0        2.62       0.008
  YS02001784           JUNCTION      1.06  1116.03     0  01:45      0.0305        2.65       0.017
  YS02001786           JUNCTION      0.06  1116.21     0  01:45     0.00162        2.66       0.023
  YS02001788           JUNCTION      0.07  1120.31     0  01:45     0.00204        2.66       0.012
  YS02001790           JUNCTION      0.15  1119.50     0  01:46     0.00446        2.66       0.018
  YS02001791           JUNCTION      0.00  1236.17     0  01:46           0        2.66      -0.005
  YS02001793           JUNCTION      0.00  1173.68     0  01:46           0        2.67       0.029
  YS02001882           JUNCTION      0.00    49.26     0  01:40           0      0.0126       4.813
  YS02001884           JUNCTION      0.00    98.02     0  01:39           0      0.0484       5.389
  YS02001887           JUNCTION    373.97   373.97     0  01:39       0.609       0.643       0.686
  YS02001890           JUNCTION      0.00   374.51     0  01:40           0       0.602       0.856
  YS02001895           JUNCTION      0.00   376.22     0  01:40           0       0.597       0.302
  YS02001898           JUNCTION      0.00   368.58     0  01:41           0       0.595       0.016
  YS02001901           JUNCTION      0.00   376.68     0  01:41           0       0.598       0.549
  YS02001904           JUNCTION      0.00   377.98     0  01:41           0       0.607       0.455
  YS02001907           JUNCTION      0.00   773.98     0  01:47           0        1.85       0.984
  YS02001910           JUNCTION      0.00   581.48     0  01:50           0        1.24       0.579
  YS02001915           JUNCTION    374.65   580.86     0  01:50       0.742        1.26       0.114
  YS02001918           JUNCTION      0.00   298.76     0  01:50           0       0.519       0.028
  YS02001920           JUNCTION      2.87   277.08     0  01:48      0.0827       0.509       0.206
  YS02001923           JUNCTION      0.04   266.90     0  01:47     0.00109       0.422      -0.086
  YS02001926           JUNCTION      0.05   242.60     0  01:45      0.0015        0.42       0.124
  YS02001929           JUNCTION    188.04   188.04     0  01:42       0.418       0.418      -0.005
  YS02006553           JUNCTION      0.00   774.61     0  01:47           0        1.84       0.646
  YS02006556           JUNCTION      0.00   775.12     0  01:47           0        1.85       0.438
  YS02006558           JUNCTION    458.21  1133.41     0  01:43       0.841        2.66       0.137
  YS02006561           JUNCTION      0.00  1133.32     0  01:43           0        2.62       0.001
  YS02163301           JUNCTION      0.00   919.29     0  01:40           0        2.99       0.075
  YS02163601           JUNCTION      0.11  1337.25     0  01:40     0.00317        3.87       0.157
  YS02164001           JUNCTION      0.00  1337.25     0  01:40           0        3.87       0.079
  YSB1154              JUNCTION    199.32   199.32     0  01:40       0.375       0.375       0.387
  YSB1171              JUNCTION      0.00   388.12     0  01:38           0        0.66       0.954
  YSB1174              JUNCTION    174.43   174.43     0  01:39       0.277       0.278       0.478
  YSB6556              JUNCTION      0.00   201.57     0  01:40           0       0.376       0.331
  CC-1                 OUTFALL       0.00   683.00     0  00:00           0        2.94       0.000
  CC-2                 OUTFALL       0.00   683.00     0  00:00           0        1.26       0.000
  JK-1                 OUTFALL       0.00  1000.00     0  00:00           0        1.46       0.000
  JK-2                 OUTFALL       0.00  1000.00     0  00:00           0       0.626       0.000
  WSC                  OUTFALL       0.00  1474.44     0  01:48           0        12.8       0.000
  CC-storage           STORAGE       0.00  2585.71     0  01:42           0        9.28       0.089
  JK-storage           STORAGE       0.00  1191.26     0  02:15           0        2.82       0.252
  XR-storage           STORAGE     200.00   200.00     0  00:00        5.76        6.36       0.001
  
  
  **********************
  Node Surcharge Summary
  **********************
  
  Surcharging occurs when water rises above the top of the highest conduit.
  ---------------------------------------------------------------------
                                               Max. Height   Min. Depth
                                   Hours       Above Crown    Below Rim
  Node                 Type      Surcharged         Meters       Meters
  ---------------------------------------------------------------------
  HS02004478           JUNCTION        0.24          0.676        0.264
  HS02004479           JUNCTION        0.36          0.932        0.118
  HS02004480           JUNCTION        0.41          1.100        0.000
  HS02004770           JUNCTION        0.33          0.720        0.000
  HS02004777           JUNCTION        0.33          0.780        0.000
  HS02004785           JUNCTION        0.28          0.790        0.000
  HS02004788           JUNCTION        0.26          0.720        0.000
  HS02004792           JUNCTION        0.38          0.900        0.000
  HS02004799           JUNCTION        0.48          1.060        0.000
  HS02004802           JUNCTION        0.40          1.099        0.111
  HS02004807           JUNCTION        0.39          1.220        0.000
  HS02004817           JUNCTION        0.90          1.740        0.000
  HS02004824           JUNCTION        0.26          1.310        0.000
  HS02004830           JUNCTION        0.22          1.330        0.000
  HS02004837           JUNCTION        0.18          1.340        0.000
  HS02004842           JUNCTION        0.31          1.520        0.000
  HS02004848           JUNCTION        0.11          1.370        0.000
  HS02004852           JUNCTION        0.15          1.394        0.026
  HS02004856           JUNCTION        0.13          1.300        0.000
  HS02004862           JUNCTION        0.18          1.300        0.000
  HS02004870           JUNCTION        0.19          1.396        0.004
  HS02004876           JUNCTION        0.28          1.560        0.000
  HS02004881           JUNCTION        0.26          1.343        0.107
  HS02004901           JUNCTION        0.34          0.720        0.000
  WS02004401           JUNCTION        1.34          1.263        0.397
  WS02004402           JUNCTION        1.38          1.171        0.569
  WS02004403           JUNCTION        1.38          1.007        1.023
  WS02004404           JUNCTION        1.52          0.992        1.788
  WS02004405           JUNCTION        1.50          0.895        1.905
  WS02004406           JUNCTION        1.48          0.818        1.632
  WS02004409           JUNCTION        0.63          0.332        2.028
  WS02004410           JUNCTION        0.61          0.247        2.293
  WS02004411           JUNCTION        0.53          0.310        2.220
  WS02004412           JUNCTION        0.46          0.211        2.099
  WS02004413           JUNCTION        0.98          0.817        1.383
  WS02006109           JUNCTION        1.75          1.820        0.000
  WS02006110           JUNCTION        1.61          1.850        0.000
  WS02006111           JUNCTION        0.94          1.870        0.000
  WS02006112           JUNCTION        1.65          1.680        0.000
  WS02006113           JUNCTION        0.95          1.930        0.000
  WS02006115           JUNCTION        1.25          1.354        0.896
  WS02006116           JUNCTION        1.26          1.245        1.045
  WS02006228           JUNCTION        1.75          2.200        0.000
  WS02006229           JUNCTION        0.61          1.070        0.000
  WS02006230           JUNCTION        1.49          1.570        0.000
  WS02006231           JUNCTION        1.52          1.488        0.042
  WS02006232           JUNCTION        1.63          1.480        0.000
  WS02006234           JUNCTION        1.54          1.240        0.000
  WS02006235           JUNCTION        1.57          1.290        0.000
  WS02006238           JUNCTION        1.59          1.345        0.085
  WS02006239           JUNCTION        1.54          1.290        0.000
  WS02006240           JUNCTION        1.52          1.390        0.000
  WS02006242           JUNCTION        1.56          0.820        0.000
  WS02006243           JUNCTION        1.47          0.770        0.000
  WS02006245           JUNCTION        1.43          0.850        0.000
  WS02006247           JUNCTION        1.44          0.760        0.000
  WS02006248           JUNCTION        1.35          0.380        0.000
  WS02006249           JUNCTION        1.38          0.390        0.000
  WS02006251           JUNCTION        1.17          1.180        0.000
  WS02006252           JUNCTION        1.38          1.100        0.000
  WS02006253           JUNCTION        1.18          2.175        0.305
  WS02006256           JUNCTION        7.98          2.050        0.000
  WS02006280           JUNCTION        0.47          0.780        0.000
  WS02006284           JUNCTION        0.41          0.800        0.000
  WS02006287           JUNCTION        0.33          0.756        0.134
  YS02001580           JUNCTION        0.23          0.450        0.000
  YS02001583           JUNCTION        0.24          0.500        0.000
  YS02001586           JUNCTION        0.40          0.510        0.000
  YS02001590           JUNCTION        0.47          0.750        0.000
  YS02001593           JUNCTION        0.47          0.840        0.000
  YS02001596           JUNCTION        0.56          1.070        0.000
  YS02001600           JUNCTION        0.68          1.190        0.000
  YS02001601           JUNCTION        1.03          1.440        0.000
  YS02001602           JUNCTION        0.90          1.270        0.000
  YS02001605           JUNCTION        0.85          1.180        0.000
  YS02001607           JUNCTION        0.43          0.680        0.000
  YS02001610           JUNCTION        0.45          0.680        0.000
  YS02001613           JUNCTION        0.42          0.700        0.000
  YS02001616           JUNCTION        0.39          0.610        0.000
  YS02001619           JUNCTION        0.37          0.610        0.000
  YS02001622           JUNCTION        0.37          0.620        0.000
  YS02001625           JUNCTION        0.53          0.780        0.000
  YS02001629           JUNCTION        0.32          0.470        0.000
  YS02001633           JUNCTION        0.56          1.060        0.000
  YS02001641           JUNCTION        0.48          0.866        0.234
  YS02001644           JUNCTION        0.45          0.568        0.352
  YS02001647           JUNCTION        0.22          0.258        0.642
  YS02001649           JUNCTION        0.35          0.353        0.697
  YS02001652           JUNCTION        0.10          0.222        0.908
  YS02001757           JUNCTION        0.39          0.328        0.882
  YS02001759           JUNCTION        0.29          0.235        0.975
  YS02001762           JUNCTION        0.25          0.200        0.950
  YS02001765           JUNCTION        0.18          0.189        0.911
  YS02001767           JUNCTION        0.14          0.168        0.862
  YS02001770           JUNCTION        0.11          0.092        0.828
  YS02001774           JUNCTION        0.24          0.192        0.858
  YS02001783           JUNCTION        0.26          0.383        1.217
  YS02001784           JUNCTION        0.23          0.281        1.209
  YS02001786           JUNCTION        0.10          0.052        1.378
  YS02001882           JUNCTION        0.20          0.670        0.160
  YS02001884           JUNCTION        0.21          0.700        0.170
  YS02001887           JUNCTION        0.24          0.771        0.179
  YS02001890           JUNCTION        0.26          0.760        0.000
  YS02001895           JUNCTION        0.19          0.555        0.195
  YS02001898           JUNCTION        0.18          0.500        0.240
  YS02001901           JUNCTION        0.23          0.613        0.257
  YS02001904           JUNCTION        0.22          0.570        0.280
  YS02001907           JUNCTION        0.43          0.896        0.054
  YS02001910           JUNCTION        0.29          0.704        0.396
  YS02001915           JUNCTION        0.20          0.507        0.493
  YS02001918           JUNCTION        0.08          0.175        0.635
  YS02001920           JUNCTION        0.11          0.240        0.900
  YS02006553           JUNCTION        0.43          0.895        0.295
  YS02006556           JUNCTION        0.35          0.797        0.553
  YS02006558           JUNCTION        0.35          0.762        0.638
  YS02006561           JUNCTION        0.01          0.041        1.109
  YS02163301           JUNCTION        0.54          1.030        0.000
  YS02163601           JUNCTION        0.60          1.080        0.000
  YS02164001           JUNCTION        0.49          1.100        0.000
  YSB1154              JUNCTION        0.59          1.277        0.123
  YSB1171              JUNCTION        0.59          1.100        0.000
  YSB1174              JUNCTION        0.50          1.141        0.109
  YSB6556              JUNCTION        0.45          1.100        0.000
  
  
  *********************
  Node Flooding Summary
  *********************
  
  Flooding refers to all water that overflows a node, whether it ponds or not.
  --------------------------------------------------------------------------
                                                             Total   Maximum
                                 Maximum   Time of Max       Flood    Ponded
                        Hours       Rate    Occurrence      Volume     Depth
  Node                 Flooded       LPS   days hr:min    10^6 ltr    Meters
  --------------------------------------------------------------------------
  HS02004480              0.01    106.51      0  01:40       0.000     0.000
  HS02004770              0.11    293.18      0  01:38       0.066     0.000
  HS02004777              0.01     61.76      0  01:38       0.001     0.000
  HS02004785              0.01     83.87      0  01:37       0.000     0.000
  HS02004788              0.01    457.47      0  01:37       0.004     0.000
  HS02004792              0.10    227.88      0  01:36       0.020     0.000
  HS02004799              0.01     35.70      0  01:42       0.000     0.000
  HS02004807              0.01     11.46      0  01:42       0.000     0.000
  HS02004817              0.01      3.60      0  01:42       0.000     0.000
  HS02004824              0.01      8.94      0  01:42       0.000     0.000
  HS02004830              0.01     28.18      0  01:42       0.000     0.000
  HS02004837              0.01     83.42      0  01:42       0.000     0.000
  HS02004842              0.01     65.96      0  01:42       0.000     0.000
  HS02004848              0.01    168.93      0  01:42       0.000     0.000
  HS02004856              0.01     79.56      0  01:41       0.000     0.000
  HS02004862              0.01     20.53      0  01:42       0.000     0.000
  HS02004876              0.01      6.76      0  01:42       0.000     0.000
  HS02004901              0.19    386.52      0  01:44       0.161     0.000
  WS02006109              0.16     94.16      0  01:42       0.027     0.000
  WS02006110              0.01     51.55      0  01:37       0.000     0.000
  WS02006111              0.01    416.32      0  01:37       0.001     0.000
  WS02006112              0.01    169.62      0  01:37       0.001     0.000
  WS02006113              0.01     39.42      0  01:37       0.000     0.000
  WS02006228              0.01     32.02      0  01:37       0.000     0.000
  WS02006229              0.01    232.47      0  01:37       0.000     0.000
  WS02006230              0.42    476.07      0  01:42       0.428     0.000
  WS02006232              0.10      0.64      0  01:56       0.000     0.000
  WS02006234              0.46    127.76      0  02:02       0.103     0.000
  WS02006235              0.01     19.97      0  01:36       0.000     0.000
  WS02006239              0.01     15.31      0  02:35       0.000     0.000
  WS02006240              0.01     41.41      0  02:35       0.000     0.000
  WS02006242              0.55    312.09      0  01:36       0.220     0.000
  WS02006243              0.01    384.58      0  01:36       0.001     0.000
  WS02006245              0.01    244.72      0  01:36       0.001     0.000
  WS02006247              0.01    485.23      0  01:36       0.001     0.000
  WS02006248              0.83    575.13      0  01:36       0.724     0.000
  WS02006249              1.17   1312.96      0  01:43       2.475     0.000
  WS02006251              0.01    150.68      0  01:37       0.000     0.000
  WS02006252              0.02    245.63      0  00:00       0.005     0.000
  WS02006256              0.47    293.19      0  00:00       0.202     0.000
  WS02006280              0.01    317.79      0  01:37       0.000     0.000
  WS02006284              0.01    266.41      0  01:37       0.000     0.000
  YS02001580              0.01     48.52      0  01:38       0.000     0.000
  YS02001583              0.01    146.27      0  01:38       0.000     0.000
  YS02001586              0.01    124.57      0  01:39       0.003     0.000
  YS02001590              0.01     78.41      0  01:37       0.000     0.000
  YS02001593              0.01     40.68      0  01:37       0.000     0.000
  YS02001596              0.01     17.65      0  01:37       0.000     0.000
  YS02001600              0.01     10.47      0  01:37       0.000     0.000
  YS02001601              0.34    458.66      0  01:42       0.330     0.000
  YS02001602              0.19     61.90      0  01:47       0.026     0.000
  YS02001605              0.01      3.02      0  01:39       0.000     0.000
  YS02001607              0.01      0.92      0  01:40       0.000     0.000
  YS02001610              0.08     30.19      0  01:39       0.005     0.000
  YS02001613              0.01     25.13      0  01:39       0.000     0.000
  YS02001616              0.01     52.01      0  01:39       0.000     0.000
  YS02001619              0.01    162.25      0  01:39       0.000     0.000
  YS02001622              0.01    189.83      0  01:39       0.000     0.000
  YS02001625              0.03     82.42      0  01:39       0.002     0.000
  YS02001629              0.01    259.81      0  01:39       0.001     0.000
  YS02001633              0.01      1.83      0  01:40       0.000     0.000
  YS02001890              0.01      2.87      0  01:43       0.000     0.000
  YS02163301              0.01      2.44      0  01:40       0.000     0.000
  YS02163601              0.01      1.49      0  01:40       0.000     0.000
  YS02164001              0.01      2.83      0  01:40       0.000     0.000
  YSB1171                 0.01     83.78      0  01:38       0.001     0.000
  YSB6556                 0.01     10.21      0  01:40       0.000     0.000
  
  
  **********************
  Storage Volume Summary
  **********************
  
  --------------------------------------------------------------------------------------------------
                         Average     Avg  Evap Exfil       Maximum     Max    Time of Max    Maximum
                          Volume    Pcnt  Pcnt  Pcnt        Volume    Pcnt     Occurrence    Outflow
  Storage Unit           1000 m3    Full  Loss  Loss       1000 m3    Full    days hr:min        LPS
  --------------------------------------------------------------------------------------------------
  CC-storage               3.126      49     0     0         4.384      68       0  02:10    1783.53
  JK-storage               0.150      51     0     0         0.235      81       0  02:15    2300.00
  XR-storage               0.953      66     0     0         1.111      77       0  08:00     380.00
  
  
  ***********************
  Outfall Loading Summary
  ***********************
  
  -----------------------------------------------------------
                         Flow       Avg       Max       Total
                         Freq      Flow      Flow      Volume
  Outfall Node           Pcnt       LPS       LPS    10^6 ltr
  -----------------------------------------------------------
  CC-1                  22.57    625.57    683.00       2.940
  CC-2                   9.73    549.80    683.00       1.256
  JK-1                  15.61    470.08   1000.00       1.461
  JK-2                   7.66    383.84   1000.00       0.626
  WSC                   99.96    561.10   1474.44      12.828
  -----------------------------------------------------------
  System                31.11   2590.40   1474.44      19.111
  
  
  ********************
  Link Flow Summary
  ********************
  
  -----------------------------------------------------------------------------
                                 Maximum  Time of Max   Maximum    Max/    Max/
                                  |Flow|   Occurrence   |Veloc|    Full    Full
  Link                 Type          LPS  days hr:min     m/sec    Flow   Depth
  -----------------------------------------------------------------------------
  1                    CONDUIT   1474.44     0  01:48      3.68    0.51    0.51
  HS02004478WS02006287 CONDUIT   2099.54     0  01:42      2.89    0.59    1.00
  HS02004479HS02004480 CONDUIT    419.54     0  01:38      0.60    0.41    1.00
  HS02004480HS02004478 CONDUIT   2187.00     0  01:38      3.12    9.21    1.00
  HS02004770HS02004777 CONDUIT    852.08     0  01:37      1.22    1.56    1.00
  HS02004777HS02004785 CONDUIT    845.42     0  01:37      1.38    1.04    1.00
  HS02004785HS02004788 CONDUIT    854.36     0  01:37      1.35    6.44    1.00
  HS02004788HS02004792 CONDUIT    823.30     0  01:49      1.42    0.54    1.00
  HS02004792HS02004799 CONDUIT   1647.01     0  01:38      2.35    1.01    1.00
  HS02004799HS02004480 CONDUIT   1802.23     0  01:39      2.57    2.28    1.00
  HS02004802HS02004478 CONDUIT    330.96     0  02:05      0.65    0.29    1.00
  HS02004807HS02004802 CONDUIT    319.25     0  02:06      0.58    0.61    1.00
  HS02004817HS02004807 CONDUIT    517.99     0  01:38      0.74    0.31    1.00
  HS02004817HS02004824 CONDUIT    519.79     0  01:38      0.74    0.23    1.00
  HS02004824HS02004830 CONDUIT    735.48     0  01:38      1.10    0.96    1.00
  HS02004830HS02004837 CONDUIT    777.06     0  01:38      1.24    0.77    1.00
  HS02004837HS02004842 CONDUIT    880.27     0  01:39      1.26    0.53    1.00
  HS02004842HS02004848 CONDUIT    879.76     0  01:39      1.40    0.51    1.00
  HS02004848HS02004852 CONDUIT   1057.94     0  01:39      1.70    1.19    1.00
  HS02004852HS02004856 CONDUIT    984.73     0  01:39      1.53    1.13    1.00
  HS02004856HS02004862 CONDUIT   1062.18     0  01:40      1.72    1.06    1.00
  HS02004862HS02004870 CONDUIT   1189.36     0  01:40      1.97    1.28    1.00
  HS02004870HS02004876 CONDUIT   1321.93     0  01:40      2.12    0.88    1.00
  HS02004876HS02004881 CONDUIT   1340.25     0  01:41      2.50   14.26    1.00
  HS02004881HS02006253 CONDUIT   1323.08     0  01:42      2.78    0.26    1.00
  HS02004901HS02004770 CONDUIT    241.85     0  01:44      0.35    0.91    1.00
  WS02001211WS02001212 CONDUIT    302.03     0  01:45      0.54    0.23    0.71
  WS02001212WS02001213 CONDUIT    325.41     0  01:46      1.04    0.50    0.60
  WS02001213WS02003059 CONDUIT    286.41     0  01:44      0.47    0.47    0.91
  WS02003059WS02003060 CONDUIT    352.12     0  01:40      0.67    0.23    0.81
  WS02003060WS02003069 CONDUIT   1477.10     0  01:47      2.19    0.58    0.60
  WS02003066WSF200     CONDUIT   1255.85     0  01:41      3.61    0.21    0.39
  WS02003067WS02003066 CONDUIT   1260.38     0  01:41      2.00    0.40    0.58
  WS02003069WS02003072 CONDUIT   1469.79     0  01:46      1.88    0.71    0.65
  WS02003072WS02003073 CONDUIT   1473.77     0  01:47      2.04    3.18    0.61
  WS02004138WS02004139 CONDUIT    190.00     0  00:32      2.15    0.04    0.43
  WS02004139WS02001211 CONDUIT    347.14     0  01:43      0.54    0.44    0.62
  WS02004401WS02004402 CONDUIT   1310.70     0  01:40      1.67    1.57    1.00
  WS02004402WS02004403 CONDUIT   1313.02     0  01:40      1.67    1.89    1.00
  WS02004403WS02004404 CONDUIT   1318.89     0  01:40      1.68    0.95    1.00
  WS02004404WS02004405 CONDUIT   1312.39     0  01:40      1.67   12.86    1.00
  WS02004405WS02004406 CONDUIT   1320.82     0  01:40      1.68    2.61    1.00
  WS02004406WS02004407 CONDUIT   1322.80     0  01:40      2.05    0.59    0.92
  WS02004407WS02004409 CONDUIT   1330.90     0  01:38      2.21    0.47    0.92
  WS02004409WS02004410 CONDUIT   1290.95     0  01:38      1.72    1.67    1.00
  WS02004410WS02004411 CONDUIT   1247.47     0  01:41      1.67    1.70    1.00
  WS02004411WS02004412 CONDUIT   1247.52     0  01:42      1.62    1.77    1.00
  WS02004412WS02004413 CONDUIT   1247.51     0  01:42      1.59    0.84    1.00
  WS02004413WS02003067 CONDUIT   1247.53     0  01:41      1.95    0.53    0.76
  WS02006109WS02006110 CONDUIT   1207.18     0  01:37      2.40    2.32    1.00
  WS02006110WS02006113 CONDUIT   1207.12     0  01:37      2.40    1.10    1.00
  WS02006111WS02006112 CONDUIT   1134.79     0  01:39      2.26    0.54    1.00
  WS02006112WS02006115 CONDUIT   1284.90     0  01:39      1.64    0.76    1.00
  WS02006113WS02006111 CONDUIT   1197.04     0  01:37      2.69    1.43    1.00
  WS02006115WS02006116 CONDUIT   1288.83     0  01:40      1.64    1.65    1.00
  WS02006116WS02004401 CONDUIT   1300.84     0  01:40      1.66    1.79    1.00
  WS02006228WS02006109 CONDUIT   1206.92     0  01:37      2.40    5.27    1.00
  WS02006229WS02006228 CONDUIT   1208.03     0  01:37      2.40    4.00    1.00
  WS02006230WS02006229 CONDUIT    918.73     0  01:42      2.39   20.45    1.00
  WS02006231WS02006230 CONDUIT    453.22     0  01:46      1.21    6.87    1.00
  WS02006232WS02006231 CONDUIT    453.34     0  01:46      1.18    0.95    1.00
  WS02006234WS02006232 CONDUIT    453.13     0  01:43      1.41    0.92    1.00
  WS02006235WS02006234 CONDUIT    400.88     0  02:00      1.23    4.23    1.00
  WS02006238WS02006235 CONDUIT    415.49     0  02:01      1.45    0.93    1.00
  WS02006239WS02006238 CONDUIT    415.24     0  02:02      1.12    1.33    1.00
  WS02006240WS02006239 CONDUIT    415.07     0  02:02      1.26    1.31    1.00
  WS02006242WS02006240 CONDUIT    415.28     0  02:02      1.14    1.65    1.00
  WS02006243WS02006242 CONDUIT    380.43     0  03:25      1.34    0.81    1.00
  WS02006245WS02006243 CONDUIT    400.86     0  03:23      1.39    1.19    1.00
  WS02006247WS02006245 CONDUIT    411.61     0  03:23      1.37    3.26    1.00
  WS02006248WS02006247 CONDUIT    406.28     0  03:23      1.38    0.88    1.00
  WS02006249WS02006248 CONDUIT    420.41     0  03:22      1.38    2.30    1.00
  WS02006251WS02006249 CONDUIT   1301.65     0  01:44      3.38    3.75    1.00
  WS02006252WS02006251 CONDUIT    412.21     0  02:10      3.83    1.51    1.00
  WS02006253WS02006251 CONDUIT   1348.05     0  01:42      3.50    4.04    1.00
  WS02006256WS02006235 CONDUIT    288.93     0  00:00      4.23    3.06    1.00
  WS02006280WS02006229 CONDUIT   2103.84     0  01:42      4.85    0.45    1.00
  WS02006284WS02006280 CONDUIT   2103.77     0  01:42      3.19    0.88    1.00
  WS02006287WS02006284 CONDUIT   2102.73     0  01:42      2.98    0.97    1.00
  WSF200WS02003060     CONDUIT   1403.68     0  01:39      2.95    0.31    0.50
  YS02001580YS02001583 CONDUIT    148.87     0  01:38      0.87    0.58    1.00
  YS02001583YS02001586 CONDUIT    190.95     0  01:38      0.90    0.29    1.00
  YS02001586YS02001590 CONDUIT    304.36     0  01:43      1.33    0.53    1.00
  YS02001590YS02001593 CONDUIT    304.42     0  01:43      1.08    1.91    1.00
  YS02001593YS02001596 CONDUIT    304.16     0  01:43      1.70    0.48    1.00
  YS02001596YS02001600 CONDUIT    304.32     0  01:43      1.18    0.59    1.00
  YS02001600YS02001601 CONDUIT    304.40     0  01:43      1.08    0.52    1.00
  YS02001601YS02001602 CONDUIT    583.49     0  01:38      2.06    2.11    1.00
  YS02001602YS02001605 CONDUIT    583.95     0  01:38      2.07   12.36    1.00
  YS02001605YS02001607 CONDUIT    583.46     0  01:38      2.06    3.20    1.00
  YS02001607YS02001610 CONDUIT    561.45     0  01:38      0.75    0.53    1.00
  YS02001610YS02001613 CONDUIT    525.44     0  01:38      0.71    0.61    1.00
  YS02001613YS02001616 CONDUIT    485.23     0  01:58      0.70    0.42    1.00
  YS02001616YS02001619 CONDUIT    485.72     0  01:58      0.68    0.84    1.00
  YS02001619YS02001622 CONDUIT    944.62     0  01:39      1.37    1.39    1.00
  YS02001622YS02001625 CONDUIT    950.75     0  01:39      1.21    0.51    1.00
  YS02001625YS02001629 CONDUIT    954.19     0  01:39      1.22    0.45    1.00
  YS02001629YS02163301 CONDUIT    919.29     0  01:40      1.17    1.13    1.00
  YS02001633YS02163601 CONDUIT   1337.14     0  01:40      1.70    1.40    1.00
  YS02001641YS02001644 CONDUIT   1367.89     0  01:40      1.74    4.42    1.00
  YS02001644YS02001647 CONDUIT   1737.01     0  01:40      2.30    1.02    1.00
  YS02001647YS02001649 CONDUIT   1719.72     0  01:40      2.35    0.91    1.00
  YS02001649YS02001757 CONDUIT   2049.58     0  01:41      2.63    1.24    1.00
  YS02001652YS02001649 CONDUIT    431.24     0  01:41      0.91    0.21    1.00
  YS02001655YS02001652 CONDUIT    438.07     0  01:40      1.71    0.21    0.96
  YS02001658YS02001655 CONDUIT    446.41     0  01:47      2.04    0.19    0.72
  YS02001661YS02001658 CONDUIT    358.97     0  01:40      2.22    0.14    0.41
  YS02001664YS02001661 CONDUIT    359.38     0  01:40      2.04    0.11    0.28
  YS02001745YS02001748 CONDUIT    234.69     0  01:39      2.05    0.09    0.29
  YS02001748YS02001751 CONDUIT    287.44     0  01:48      1.72    0.15    0.58
  YS02001751YS02001754 CONDUIT    268.35     0  01:46      1.68    0.13    0.81
  YS02001754YS02001757 CONDUIT    242.56     0  01:48      0.67    0.10    1.00
  YS02001757CaochengTiaoxuchi CONDUIT   2585.71     0  01:42      3.39    1.12    1.00
  YS02001759YS02001757 CONDUIT    673.83     0  01:44      1.13    0.48    1.00
  YS02001762YS02001759 CONDUIT    406.98     0  01:44      0.56    0.47    1.00
  YS02001765YS02001762 CONDUIT    407.82     0  01:44      0.74    0.38    1.00
  YS02001767YS02001765 CONDUIT    408.72     0  01:44      0.91    0.51    1.00
  YS02001770YS02001767 CONDUIT    452.78     0  01:43      0.96    1.79    1.00
  YS02001774YS02001770 CONDUIT    126.65     0  01:41      0.22    0.08    1.00
  YS02001779YS02001774 CONDUIT     93.77     0  01:43      0.14    0.05    0.97
  YS02001783YS02001784 CONDUIT   1114.97     0  01:45      2.22    1.54    1.00
  YS02001784YS02001785 CONDUIT   1116.16     0  01:45      2.22    2.60    1.00
  YS02001786YS02001788 CONDUIT   1120.24     0  01:45      2.40    2.16    0.88
  YS02001788YS02001790 CONDUIT   1119.35     0  01:46      2.64    0.82    0.82
  YS02001790YS02001791 CONDUIT   1236.17     0  01:46      3.39    1.34    0.68
  YS02001791YS02001793 CONDUIT   1173.68     0  01:46      6.62    0.50    0.64
  YS02001793JiankangQianchi CONDUIT   1191.26     0  02:15      2.32    0.09    0.94
  YS02001882YS02001884 CONDUIT     49.26     0  01:40      0.14    0.06    1.00
  YS02001884YS02001887 CONDUIT     98.02     0  01:39      0.13    0.13    1.00
  YS02001887YS02001890 CONDUIT    374.51     0  01:40      0.48    0.64    1.00
  YS02001890YS02001895 CONDUIT    376.22     0  01:40      0.48    0.18    1.00
  YS02001895YS02001898 CONDUIT    368.58     0  01:41      0.47    0.64    1.00
  YS02001898YS02001901 CONDUIT    376.68     0  01:41      0.48    0.24    1.00
  YS02001901YS02001904 CONDUIT    377.98     0  01:41      0.48    0.59    1.00
  YS02001904YS02001907 CONDUIT    381.08     0  01:41      0.49    0.13    1.00
  YS02001907YS02006553 CONDUIT    774.61     0  01:47      0.86    0.91    1.00
  YS02001910YS02001907 CONDUIT    581.54     0  01:50      0.74    0.33    1.00
  YS02001915YS02001910 CONDUIT    581.48     0  01:50      0.74    0.29    1.00
  YS02001918YS02001915 CONDUIT    327.65     0  01:50      0.44    0.18    1.00
  YS02001920YS02001918 CONDUIT    298.76     0  01:50      0.71    0.29    1.00
  YS02001923YS02001920 CONDUIT    274.21     0  01:48      0.87    0.12    1.00
  YS02001926YS02001923 CONDUIT    266.86     0  01:47      0.96    0.38    0.77
  YS02001929YS02001926 CONDUIT    242.55     0  01:45      1.07    0.12    0.66
  YS02006553YS02006556 CONDUIT    775.12     0  01:47      0.99    0.66    1.00
  YS02006556YS02006558 CONDUIT    775.60     0  01:47      0.99    0.61    1.00
  YS02006558YS02006561 CONDUIT   1133.32     0  01:43      4.01    2.50    1.00
  YS02006561YS02001783 CONDUIT   1115.38     0  01:45      2.28    0.58    1.00
  YS02163301YS02001633 CONDUIT    920.09     0  01:40      1.17    0.86    1.00
  YS02163601YS02164001 CONDUIT   1337.25     0  01:40      1.70    1.18    1.00
  YS02164001YS02001641 CONDUIT   1348.58     0  01:40      1.72    1.84    1.00
  YSB1154YSB6556       CONDUIT    201.57     0  01:40      0.52    0.36    1.00
  YSB1171HS02004479    CONDUIT    401.89     0  01:38      0.80    0.27    1.00
  YSB1174YSB1171       CONDUIT    179.65     0  01:38      0.47    0.28    1.00
  YSB6556YSB1171       CONDUIT    210.72     0  01:40      0.55    0.22    1.00
  CC-R1                PUMP       683.00     0  00:00              1.00
  CC-R2                PUMP       683.00     0  00:00              1.00
  CC-S1                PUMP       200.00     0  00:00              1.00
  CC-S2                PUMP       200.00     0  00:00              1.00
  JK-R1                PUMP      1000.00     0  00:00              1.00
  JK-R2                PUMP      1000.00     0  00:00              1.00
  JK-S                 PUMP       300.00     0  00:00              1.00
  XR-1                 PUMP        95.00     0  00:00              1.00
  XR-2                 PUMP        95.00     0  00:00              1.00
  XR-3                 PUMP        95.00     0  00:00              1.00
  XR-4                 PUMP        95.00     0  00:00              1.00
  
  
  ***************************
  Flow Classification Summary
  ***************************
  
  -------------------------------------------------------------------------------------
                      Adjusted    ---------- Fraction of Time in Flow Class ---------- 
                       /Actual         Up    Down  Sub   Sup   Up    Down  Norm  Inlet 
  Conduit               Length    Dry  Dry   Dry   Crit  Crit  Crit  Crit  Ltd   Ctrl  
  -------------------------------------------------------------------------------------
  1                       1.00   0.00  0.00  0.00  0.00  1.00  0.00  0.00  0.36  0.00
  HS02004478WS02006287    1.00   0.12  0.00  0.00  0.57  0.31  0.00  0.00  0.61  0.00
  HS02004479HS02004480    1.00   0.03  0.00  0.00  0.97  0.00  0.00  0.00  0.11  0.00
  HS02004480HS02004478    1.00   0.10  0.00  0.00  0.52  0.00  0.00  0.38  0.00  0.00
  HS02004770HS02004777    1.00   0.00  0.09  0.00  0.91  0.00  0.00  0.00  0.03  0.00
  HS02004777HS02004785    1.00   0.00  0.00  0.00  1.00  0.00  0.00  0.00  0.12  0.00
  HS02004785HS02004788    1.00   0.00  0.00  0.00  1.00  0.00  0.00  0.00  0.00  0.00
  HS02004788HS02004792    1.00   0.00  0.00  0.00  0.99  0.01  0.00  0.00  0.93  0.00
  HS02004792HS02004799    1.00   0.00  0.00  0.00  0.99  0.01  0.00  0.00  0.89  0.00
  HS02004799HS02004480    1.00   0.00  0.02  0.00  0.88  0.00  0.09  0.00  0.00  0.00
  HS02004802HS02004478    1.00   0.10  0.01  0.00  0.90  0.00  0.00  0.00  0.03  0.00
  HS02004807HS02004802    1.00   0.09  0.00  0.00  0.89  0.00  0.00  0.01  0.00  0.00
  HS02004817HS02004807    1.00   0.00  0.09  0.00  0.91  0.00  0.00  0.00  0.01  0.00
  HS02004817HS02004824    1.00   0.00  0.00  0.00  1.00  0.00  0.00  0.00  0.86  0.00
  HS02004824HS02004830    1.00   0.00  0.00  0.00  1.00  0.00  0.00  0.00  0.01  0.00
  HS02004830HS02004837    1.00   0.00  0.00  0.00  1.00  0.00  0.00  0.00  0.91  0.00
  HS02004837HS02004842    1.00   0.00  0.00  0.00  1.00  0.00  0.00  0.00  0.11  0.00
  HS02004842HS02004848    1.00   0.00  0.09  0.00  0.91  0.00  0.00  0.00  0.60  0.00
  HS02004848HS02004852    1.00   0.09  0.00  0.00  0.91  0.00  0.00  0.00  0.74  0.00
  HS02004852HS02004856    1.00   0.09  0.01  0.00  0.90  0.00  0.00  0.00  0.72  0.00
  HS02004856HS02004862    1.00   0.00  0.12  0.00  0.88  0.00  0.00  0.00  0.77  0.00
  HS02004862HS02004870    1.00   0.00  0.00  0.00  1.00  0.00  0.00  0.00  0.03  0.00
  HS02004870HS02004876    1.00   0.00  0.00  0.00  0.99  0.01  0.00  0.00  0.89  0.00
  HS02004876HS02004881    1.00   0.02  0.00  0.00  0.73  0.26  0.00  0.00  0.00  0.00
  HS02004881HS02006253    1.00   0.03  0.01  0.00  0.39  0.02  0.00  0.55  0.19  0.00
  HS02004901HS02004770    1.00   0.09  0.00  0.00  0.91  0.00  0.00  0.00  0.00  0.00
  WS02001211WS02001212    1.00   0.00  0.02  0.00  0.98  0.00  0.00  0.00  0.00  0.00
  WS02001212WS02001213    1.00   0.02  0.00  0.00  0.39  0.00  0.59  0.00  0.00  0.00
  WS02001213WS02003059    1.00   0.00  0.00  0.00  0.99  0.00  0.00  0.00  0.00  0.00
  WS02003059WS02003060    1.00   0.00  0.00  0.00  1.00  0.00  0.00  0.00  0.03  0.00
  WS02003060WS02003069    1.00   0.00  0.00  0.00  0.98  0.02  0.00  0.00  0.52  0.00
  WS02003066WSF200        1.00   0.09  0.00  0.00  0.00  0.91  0.00  0.00  0.66  0.00
  WS02003067WS02003066    1.00   0.07  0.01  0.00  0.91  0.00  0.00  0.00  0.00  0.00
  WS02003069WS02003072    1.00   0.00  0.00  0.00  1.00  0.00  0.00  0.00  0.70  0.00
  WS02003072WS02003073    1.00   0.00  0.00  0.00  0.00  0.00  0.00  1.00  0.00  0.00
  WS02004138WS02004139    1.00   0.00  0.00  0.00  0.98  0.00  0.00  0.01  0.98  0.00
  WS02004139WS02001211    1.00   0.00  0.00  0.00  1.00  0.00  0.00  0.00  0.00  0.00
  WS02004401WS02004402    1.00   0.02  0.00  0.00  0.98  0.00  0.00  0.00  0.00  0.00
  WS02004402WS02004403    1.00   0.02  0.00  0.00  0.98  0.00  0.00  0.00  0.00  0.00
  WS02004403WS02004404    1.00   0.00  0.02  0.00  0.98  0.00  0.00  0.00  0.00  0.00
  WS02004404WS02004405    1.00   0.00  0.00  0.00  1.00  0.00  0.00  0.00  0.00  0.00
  WS02004405WS02004406    1.00   0.00  0.00  0.00  1.00  0.00  0.00  0.00  0.00  0.00
  WS02004406WS02004407    1.00   0.00  0.04  0.00  0.96  0.00  0.00  0.00  0.00  0.00
  WS02004407WS02004409    1.00   0.04  0.00  0.00  0.96  0.01  0.00  0.00  0.86  0.00
  WS02004409WS02004410    1.00   0.04  0.00  0.00  0.96  0.00  0.00  0.00  0.02  0.00
  WS02004410WS02004411    1.00   0.04  0.00  0.00  0.96  0.00  0.00  0.00  0.00  0.00
  WS02004411WS02004412    1.00   0.04  0.00  0.00  0.96  0.00  0.00  0.00  0.00  0.00
  WS02004412WS02004413    1.00   0.04  0.00  0.00  0.96  0.00  0.00  0.00  0.01  0.00
  WS02004413WS02003067    1.00   0.04  0.03  0.00  0.00  0.00  0.93  0.00  0.00  0.00
  WS02006109WS02006110    1.00   0.00  0.01  0.00  0.99  0.00  0.01  0.00  0.00  0.00
  WS02006110WS02006113    1.00   0.01  0.01  0.00  0.99  0.00  0.00  0.00  0.00  0.00
  WS02006111WS02006112    1.00   0.02  0.00  0.00  0.98  0.00  0.00  0.00  0.79  0.00
  WS02006112WS02006115    1.00   0.02  0.00  0.00  0.98  0.00  0.00  0.00  0.00  0.00
  WS02006113WS02006111    1.00   0.01  0.00  0.00  0.22  0.77  0.00  0.00  0.07  0.00
  WS02006115WS02006116    1.00   0.02  0.00  0.00  0.98  0.00  0.00  0.01  0.00  0.00
  WS02006116WS02004401    1.00   0.02  0.00  0.00  0.98  0.00  0.00  0.00  0.00  0.00
  WS02006228WS02006109    1.00   0.00  0.00  0.00  1.00  0.00  0.00  0.00  0.00  0.00
  WS02006229WS02006228    1.00   0.00  0.00  0.00  0.99  0.00  0.00  0.01  0.00  0.00
  WS02006230WS02006229    1.00   0.00  0.00  0.00  0.99  0.00  0.00  0.01  0.00  0.00
  WS02006231WS02006230    1.00   0.00  0.00  0.00  0.41  0.00  0.59  0.00  0.00  0.00
[...]
  WS02006249WS02006248    1.00   0.00  0.00  0.00  0.48  0.00  0.52  0.00  0.00  0.00
  WS02006251WS02006249    1.00   0.00  0.00  0.00  1.00  0.00  0.00  0.00  0.68  0.00
  WS02006252WS02006251    1.00   0.00  0.00  0.00  0.21  0.00  0.79  0.00  0.00  0.00
  WS02006253WS02006251    1.00   0.00  0.00  0.00  1.00  0.00  0.00  0.00  0.00  0.00
  WS02006256WS02006235    1.00   0.00  0.00  0.00  1.00  0.00  0.00  0.00  0.00  0.00
  WS02006280WS02006229    1.00   0.10  0.00  0.00  0.15  0.05  0.00  0.70  0.02  0.00
  WS02006284WS02006280    1.00   0.10  0.00  0.00  0.09  0.02  0.00  0.79  0.00  0.00
  WS02006287WS02006284    1.00   0.07  0.04  0.00  0.50  0.38  0.00  0.00  0.66  0.00
  WSF200WS02003060        1.00   0.00  0.09  0.00  0.55  0.36  0.00  0.00  0.62  0.00
  YS02001580YS02001583    1.00   0.16  0.64  0.00  0.20  0.00  0.00  0.00  0.74  0.00
  YS02001583YS02001586    1.00   0.40  0.25  0.00  0.35  0.00  0.00  0.00  0.74  0.00
  YS02001586YS02001590    1.00   0.09  0.00  0.00  0.50  0.03  0.00  0.38  0.32  0.00
  YS02001590YS02001593    1.00   0.09  0.01  0.00  0.10  0.00  0.80  0.00  0.00  0.00
  YS02001593YS02001596    1.00   0.10  0.00  0.00  0.12  0.01  0.00  0.77  0.02  0.00
  YS02001596YS02001600    1.00   0.10  0.00  0.00  0.21  0.04  0.00  0.65  0.06  0.00
  YS02001600YS02001601    1.00   0.09  0.01  0.00  0.90  0.00  0.00  0.00  0.64  0.00
  YS02001601YS02001602    1.00   0.09  0.01  0.00  0.90  0.00  0.00  0.00  0.00  0.00
  YS02001602YS02001605    1.00   0.10  0.00  0.00  0.90  0.00  0.00  0.00  0.00  0.00
  YS02001605YS02001607    1.00   0.10  0.00  0.00  0.90  0.00  0.00  0.00  0.00  0.00
  YS02001607YS02001610    1.00   0.10  0.01  0.00  0.90  0.00  0.00  0.00  0.02  0.00
  YS02001610YS02001613    1.00   0.09  0.00  0.00  0.91  0.00  0.00  0.00  0.01  0.00
  YS02001613YS02001616    1.00   0.09  0.00  0.00  0.91  0.00  0.00  0.00  0.00  0.00
  YS02001616YS02001619    1.00   0.09  0.00  0.00  0.91  0.00  0.00  0.00  0.00  0.00
  YS02001619YS02001622    1.00   0.09  0.00  0.00  0.91  0.00  0.00  0.00  0.37  0.00
  YS02001622YS02001625    1.00   0.09  0.00  0.00  0.91  0.00  0.00  0.00  0.05  0.00
  YS02001625YS02001629    1.00   0.09  0.04  0.00  0.14  0.00  0.72  0.00  0.00  0.00
  YS02001629YS02163301    1.00   0.12  0.01  0.00  0.88  0.00  0.00  0.00  0.00  0.00
  YS02001633YS02163601    1.00   0.00  0.00  0.00  1.00  0.00  0.00  0.00  0.15  0.00
  YS02001641YS02001644    1.00   0.00  0.00  0.00  1.00  0.00  0.00  0.00  0.00  0.00
  YS02001644YS02001647    1.00   0.00  0.13  0.00  0.87  0.00  0.00  0.00  0.00  0.00
  YS02001647YS02001649    1.00   0.00  0.13  0.00  0.81  0.06  0.00  0.00  0.16  0.00
  YS02001649YS02001757    1.00   0.00  0.00  0.00  1.00  0.00  0.00  0.00  0.18  0.00
  YS02001652YS02001649    1.00   0.00  0.00  0.00  0.97  0.03  0.00  0.00  0.15  0.00
  YS02001655YS02001652    1.00   0.00  0.00  0.00  0.67  0.04  0.00  0.29  0.64  0.00
  YS02001658YS02001655    1.00   0.00  0.10  0.00  0.56  0.34  0.00  0.00  0.75  0.00
  YS02001661YS02001658    1.00   0.10  0.00  0.00  0.40  0.49  0.00  0.00  0.79  0.00
  YS02001664YS02001661    1.00   0.09  0.00  0.00  0.75  0.15  0.00  0.00  0.87  0.00
  YS02001745YS02001748    1.00   0.00  0.00  0.00  0.04  0.02  0.00  0.93  0.05  0.00
  YS02001748YS02001751    1.00   0.00  0.00  0.00  0.71  0.29  0.00  0.00  0.79  0.00
  YS02001751YS02001754    1.00   0.00  0.00  0.00  0.63  0.02  0.00  0.35  0.59  0.00
  YS02001754YS02001757    1.00   0.00  0.00  0.00  1.00  0.00  0.00  0.00  0.22  0.00
  YS02001757CaochengTiaoxuchi    1.00   0.00  0.00  0.00  0.99  0.01  0.00  0.00  0.19  0.00
  YS02001759YS02001757    1.00   0.00  0.00  0.00  1.00  0.00  0.00  0.00  0.06  0.00
  YS02001762YS02001759    1.00   0.00  0.00  0.00  1.00  0.00  0.00  0.00  0.04  0.00
  YS02001765YS02001762    1.00   0.00  0.00  0.00  1.00  0.00  0.00  0.00  0.16  0.00
  YS02001767YS02001765    1.00   0.00  0.00  0.00  1.00  0.00  0.00  0.00  0.00  0.00
  YS02001770YS02001767    1.00   0.00  0.00  0.00  1.00  0.00  0.00  0.00  0.00  0.00
  YS02001774YS02001770    1.00   0.00  0.10  0.00  0.90  0.00  0.00  0.00  0.03  0.00
  YS02001779YS02001774    1.00   0.00  0.00  0.00  1.00  0.00  0.00  0.00  0.69  0.00
  YS02001783YS02001784    1.00   0.00  0.13  0.00  0.87  0.00  0.00  0.00  0.58  0.00
  YS02001784YS02001785    1.00   0.00  0.00  0.00  1.00  0.00  0.00  0.00  0.17  0.00
  YS02001786YS02001788    1.00   0.00  0.00  0.00  0.65  0.35  0.00  0.00  0.00  0.00
  YS02001788YS02001790    1.00   0.00  0.00  0.00  0.15  0.85  0.00  0.00  0.87  0.00
  YS02001790YS02001791    1.00   0.00  0.00  0.00  0.01  0.99  0.00  0.00  0.17  0.00
  YS02001791YS02001793    1.00   0.00  0.00  0.00  0.00  1.00  0.00  0.00  0.01  0.00
  YS02001793JiankangQianchi    1.00   0.00  0.00  0.00  0.99  0.00  0.00  0.00  0.97  0.00
  YS02001882YS02001884    1.00   0.11  0.01  0.00  0.88  0.00  0.00  0.00  0.00  0.00
  YS02001884YS02001887    1.00   0.04  0.04  0.00  0.92  0.00  0.00  0.00  0.00  0.00
  YS02001887YS02001890    1.00   0.00  0.00  0.00  0.98  0.00  0.02  0.00  0.00  0.00
  YS02001890YS02001895    1.00   0.00  0.12  0.00  0.88  0.00  0.00  0.00  0.00  0.00
  YS02001895YS02001898    1.00   0.12  0.00  0.00  0.86  0.00  0.01  0.00  0.00  0.00
  YS02001898YS02001901    1.00   0.12  0.00  0.00  0.88  0.00  0.00  0.00  0.01  0.00
  YS02001901YS02001904    1.00   0.12  0.00  0.00  0.88  0.00  0.00  0.00  0.00  0.00
  YS02001904YS02001907    1.00   0.00  0.12  0.00  0.88  0.00  0.00  0.00  0.00  0.00
  YS02001907YS02006553    1.00   0.00  0.02  0.00  0.98  0.00  0.00  0.00  0.00  0.00
  YS02001910YS02001907    1.00   0.00  0.00  0.00  0.98  0.00  0.00  0.02  0.12  0.00
  YS02001915YS02001910    1.00   0.00  0.00  0.00  0.97  0.03  0.00  0.00  0.16  0.00
  YS02001918YS02001915    1.00   0.00  0.00  0.00  0.98  0.01  0.00  0.00  0.80  0.00
  YS02001920YS02001918    1.00   0.00  0.00  0.00  1.00  0.00  0.00  0.00  0.00  0.00
  YS02001923YS02001920    1.00   0.00  0.00  0.00  1.00  0.00  0.00  0.00  0.96  0.00
  YS02001926YS02001923    1.00   0.00  0.05  0.00  0.03  0.00  0.92  0.00  0.00  0.00
  YS02001929YS02001926    1.00   0.00  0.09  0.00  0.91  0.00  0.00  0.00  0.86  0.00
  YS02006553YS02006556    1.00   0.01  0.00  0.00  0.99  0.00  0.00  0.00  0.03  0.00
  YS02006556YS02006558    1.00   0.00  0.00  0.00  1.00  0.00  0.00  0.00  0.00  0.00
  YS02006558YS02006561    1.00   0.13  0.00  0.00  0.02  0.84  0.00  0.00  0.19  0.00
  YS02006561YS02001783    1.00   0.13  0.00  0.00  0.06  0.81  0.00  0.00  0.73  0.00
  YS02163301YS02001633    1.00   0.00  0.11  0.00  0.89  0.00  0.00  0.00  0.00  0.00
  YS02163601YS02164001    1.00   0.00  0.06  0.00  0.94  0.00  0.00  0.00  0.00  0.00
  YS02164001YS02001641    1.00   0.00  0.05  0.00  0.94  0.00  0.00  0.00  0.06  0.00
  YSB1154YSB6556          1.00   0.09  0.00  0.00  0.91  0.00  0.00  0.00  0.02  0.00
  YSB1171HS02004479       1.00   0.03  0.00  0.00  0.96  0.00  0.00  0.01  0.10  0.00
  YSB1174YSB1171          1.00   0.04  0.03  0.00  0.93  0.00  0.00  0.00  0.00  0.00
  YSB6556YSB1171          1.00   0.03  0.06  0.00  0.91  0.00  0.00  0.00  0.00  0.00
  
  
  *************************
  Conduit Surcharge Summary
  *************************
  
  ----------------------------------------------------------------------------
                                                           Hours        Hours 
                         --------- Hours Full --------   Above Full   Capacity
  Conduit                Both Ends  Upstream  Dnstream   Normal Flow   Limited
  ----------------------------------------------------------------------------
  HS02004478WS02006287        0.24      0.24      0.39      0.01         0.01
  HS02004479HS02004480        0.41      0.41      0.42      0.01         0.01
  HS02004480HS02004478        0.33      0.41      0.33      1.54         0.33
  HS02004770HS02004777        0.33      0.33      0.33      0.12         0.09
  HS02004777HS02004785        0.28      0.28      0.33      0.01         0.01
  HS02004785HS02004788        0.26      0.28      0.26      1.11         0.26
  HS02004788HS02004792        0.26      0.26      0.38      0.01         0.01
  HS02004792HS02004799        0.38      0.38      0.48      0.01         0.02
  HS02004799HS02004480        0.41      0.41      0.48      0.57         0.01
  HS02004802HS02004478        0.34      0.34      0.41      0.01         0.01
  HS02004807HS02004802        0.39      0.39      0.40      0.01         0.01
  HS02004817HS02004807        0.39      0.39      0.90      0.01         0.01
  HS02004817HS02004824        0.26      0.26      0.90      0.01         0.01
  HS02004824HS02004830        0.22      0.22      0.26      0.01         0.01
  HS02004830HS02004837        0.18      0.18      0.22      0.01         0.01
  HS02004837HS02004842        0.18      0.18      0.31      0.01         0.01
  HS02004842HS02004848        0.11      0.11      0.31      0.01         0.01
  HS02004848HS02004852        0.11      0.11      0.15      0.04         0.01
  HS02004852HS02004856        0.15      0.15      0.17      0.03         0.01
  HS02004856HS02004862        0.13      0.13      0.18      0.02         0.01
  HS02004862HS02004870        0.18      0.18      0.19      0.03         0.01
  HS02004870HS02004876        0.19      0.19      0.28      0.01         0.01
  HS02004876HS02004881        0.25      0.28      0.25      1.12         0.25
  HS02004881HS02006253        0.25      0.25      1.18      0.01         0.01
  HS02004901HS02004770        0.33      0.33      0.34      0.01         0.01
  WS02003072WS02003073        0.01      0.01      0.01      2.10         0.01
  WS02004401WS02004402        1.34      1.34      1.38      1.10         1.07
  WS02004402WS02004403        1.38      1.38      1.38      1.33         1.32
  WS02004403WS02004404        1.38      1.38      1.52      0.01         0.01
  WS02004404WS02004405        1.50      1.52      1.50      2.70         1.50
  WS02004405WS02004406        1.48      1.50      1.48      1.64         1.48
  WS02004406WS02004407        0.01      0.01      1.48      0.01         0.01
  WS02004407WS02004409        0.01      0.01      0.63      0.01         0.01
  WS02004409WS02004410        0.61      0.63      0.61      1.24         0.61
  WS02004410WS02004411        0.53      0.61      0.53      1.29         0.53
  WS02004411WS02004412        0.46      0.53      0.46      1.33         0.46
  WS02004412WS02004413        0.46      0.46      0.98      0.01         0.01
  WS02004413WS02003067        0.01      0.01      0.98      0.01         0.01
  WS02006109WS02006110        1.61      1.61      1.80      1.61         0.01
  WS02006110WS02006113        0.95      0.95      1.78      0.25         0.01
  WS02006111WS02006112        0.94      0.94      2.03      0.01         0.01
  WS02006112WS02006115        1.25      1.25      1.65      0.01         0.01
  WS02006113WS02006111        0.95      0.95      0.95      1.05         0.94
  WS02006115WS02006116        1.26      1.26      1.26      1.25         1.22
  WS02006116WS02004401        1.33      1.33      1.34      1.31         1.28
  WS02006228WS02006109        1.75      1.80      1.75      2.09         1.75
  WS02006229WS02006228        1.75      1.76      1.75      1.96         1.74
  WS02006230WS02006229        1.86      1.89      1.86      3.25         1.14
  WS02006231WS02006230        1.49      1.49      1.53      2.73         0.65
  WS02006232WS02006231        1.52      1.52      1.63      0.01         0.10
  WS02006234WS02006232        1.57      1.57      1.63      0.01         0.01
  WS02006235WS02006234        1.54      1.54      1.57      2.26         0.62
  WS02006238WS02006235        1.58      1.58      1.61      0.01         0.20
  WS02006239WS02006238        1.58      1.58      1.59      0.64         0.10
  WS02006240WS02006239        1.52      1.53      1.54      0.62         0.09
  WS02006242WS02006240        1.52      1.52      1.58      1.31         0.58
  WS02006243WS02006242        1.48      1.48      1.56      0.01         0.01
  WS02006245WS02006243        1.44      1.44      1.47      0.09         0.02
  WS02006247WS02006245        1.43      1.45      1.43      1.71         0.63
  WS02006248WS02006247        1.37      1.37      1.44      0.01         0.01
  WS02006249WS02006248        1.34      1.35      1.38      0.89         0.01
  WS02006251WS02006249        1.34      1.34      1.38      1.09         0.95
  WS02006252WS02006251        1.33      1.33      1.38      0.67         0.01
  WS02006253WS02006251        1.33      1.33      1.37      0.50         0.02
  WS02006256WS02006235        2.50      2.53      7.96      0.40         0.01
  WS02006280WS02006229        0.48      0.48      0.61      0.01         0.01
  WS02006284WS02006280        0.41      0.41      0.47      0.01         0.01
  WS02006287WS02006284        0.33      0.33      0.42      0.01         0.01
  YS02001580YS02001583        0.23      0.23      0.29      0.01         0.01
  YS02001583YS02001586        0.24      0.24      0.40      0.01         0.01
  YS02001586YS02001590        0.41      0.41      0.47      0.01         0.01
  YS02001590YS02001593        0.47      0.47      0.49      0.52         0.01
  YS02001593YS02001596        0.48      0.48      0.56      0.01         0.01
  YS02001596YS02001600        0.59      0.59      0.68      0.01         0.01
  YS02001600YS02001601        0.74      0.74      1.03      0.01         0.01
  YS02001601YS02001602        0.90      0.90      1.08      0.69         0.01
  YS02001602YS02001605        0.85      0.85      0.90      1.90         0.01
  YS02001605YS02001607        0.82      0.85      0.82      0.97         0.82
  YS02001607YS02001610        0.43      0.43      0.45      0.01         0.01
  YS02001610YS02001613        0.42      0.42      0.45      0.01         0.01
  YS02001613YS02001616        0.39      0.39      0.42      0.01         0.01
  YS02001616YS02001619        0.37      0.37      0.39      0.01         0.01
  YS02001619YS02001622        0.37      0.37      0.37      0.50         0.35
  YS02001622YS02001625        0.37      0.37      0.53      0.01         0.01
  YS02001625YS02001629        0.32      0.32      0.53      0.01         0.01
  YS02001629YS02163301        0.52      0.52      0.54      0.27         0.22
  YS02001633YS02163601        0.56      0.56      0.60      0.38         0.38
  YS02001641YS02001644        0.45      0.48      0.45      1.15         0.45
  YS02001644YS02001647        0.22      0.22      0.45      0.01         0.01
  YS02001647YS02001649        0.23      0.23      0.35      0.01         0.01
  YS02001649YS02001757        0.33      0.35      0.39      0.17         0.13
  YS02001652YS02001649        0.13      0.13      0.35      0.01         0.01
  YS02001655YS02001652        0.01      0.01      0.10      0.01         0.01
  YS02001754YS02001757        0.01      0.01      0.39      0.01         0.01
  YS02001757CaochengTiaoxuchi        0.36      0.39      6.28      0.16         0.10
  YS02001759YS02001757        0.29      0.29      0.39      0.01         0.01
  YS02001762YS02001759        0.25      0.25      0.29      0.01         0.01
  YS02001765YS02001762        0.18      0.18      0.25      0.01         0.01
  YS02001767YS02001765        0.14      0.14      0.18      0.01         0.01
  YS02001770YS02001767        0.14      0.14      0.14      0.29         0.09
  YS02001774YS02001770        0.11      0.11      0.24      0.01         0.01
  YS02001779YS02001774        0.01      0.01      0.24      0.01         0.01
  YS02001783YS02001784        0.23      0.26      0.23      0.37         0.23
  YS02001784YS02001785        0.10      0.23      0.10      0.56         0.10
  YS02001786YS02001788        0.01      0.10      0.01      0.45         0.01
  YS02001790YS02001791        0.01      0.01      0.01      0.21         0.01
  YS02001791YS02001793        0.01      0.01      0.01      0.01         0.01
  YS02001793JiankangQianchi        0.01      0.01      7.70      0.01         0.01
  YS02001882YS02001884        0.20      0.20      0.21      0.01         0.01
  YS02001884YS02001887        0.23      0.23      0.24      0.01         0.01
  YS02001887YS02001890        0.26      0.26      0.27      0.01         0.01
  YS02001890YS02001895        0.19      0.19      0.29      0.01         0.01
  YS02001895YS02001898        0.18      0.18      0.19      0.01         0.01
  YS02001898YS02001901        0.19      0.19      0.23      0.01         0.01
  YS02001901YS02001904        0.22      0.22      0.23      0.01         0.01
  YS02001904YS02001907        0.22      0.22      0.43      0.01         0.01
  YS02001907YS02006553        0.56      0.56      0.61      0.01         0.01
  YS02001910YS02001907        0.29      0.29      0.43      0.01         0.01
  YS02001915YS02001910        0.20      0.20      0.29      0.01         0.01
  YS02001918YS02001915        0.08      0.08      0.20      0.01         0.01
  YS02001920YS02001918        0.08      0.08      0.11      0.01         0.01
  YS02001923YS02001920        0.01      0.01      0.11      0.01         0.01
  YS02006553YS02006556        0.35      0.35      0.43      0.01         0.01
  YS02006556YS02006558        0.39      0.39      0.45      0.01         0.01
  YS02006558YS02006561        0.13      0.35      0.13      0.52         0.13
  YS02006561YS02001783        0.01      0.01      0.26      0.01         0.01
  YS02163301YS02001633        0.54      0.54      0.58      0.01         0.01
  YS02163601YS02164001        0.49      0.49      0.60      0.19         0.01
  YS02164001YS02001641        0.48      0.49      0.48      0.57         0.48
  YSB1154YSB6556              0.45      0.45      0.59      0.01         0.01
  YSB1171HS02004479           0.36      0.36      0.59      0.01         0.01
  YSB1174YSB1171              0.50      0.50      0.82      0.01         0.01
  YSB6556YSB1171              0.45      0.45      0.97      0.01         0.01
  
  
  ***************
  Pumping Summary
  ***************
  
  ---------------------------------------------------------------------------------------------------------
                                                  Min       Avg       Max     Total     Power    % Time Off
                        Percent   Number of      Flow      Flow      Flow    Volume     Usage    Pump Curve
  Pump                 Utilized   Start-Ups       LPS       LPS       LPS  10^6 ltr     Kw-hr    Low   High
  ---------------------------------------------------------------------------------------------------------
  CC-R1                   15.97           3      0.00    625.57    683.00     2.939     54.45    0.0    6.5
  CC-R2                    7.41           2      0.00    549.80    683.00     1.255     23.37    0.0   14.1
  CC-S1                   97.92           2      0.00     33.06    200.00     0.710      4.18    0.0    0.0
  CC-S2                   95.12           4      0.00     66.08    200.00     1.084      6.42    0.0    0.0
  JK-R1                   11.25           9      0.00    470.08   1000.00     1.459     17.16    0.0    0.0
  JK-R2                    6.29           6      0.00    383.84   1000.00     0.624      6.35    0.0    0.0
  JK-S                    25.63          12      0.00     47.94    300.00     0.521      6.83    0.0    0.0
  XR-1                    97.91           2      0.00     95.00     95.00     2.679      9.63    0.0    0.0
  XR-2                    93.95           2      0.00     95.00     95.00     2.570      8.79    0.0    0.0
  XR-3                     0.00           1      0.00     95.00     95.00     0.000      0.00    0.0    0.0
  XR-4                     0.00           1      0.00     95.00     95.00     0.000      0.00    0.0    0.0
  

  Analysis begun on:  Sun Jun 25 21:04:02 2023
  Analysis ended on:  Sun Jun 25 21:04:15 2023
  Total elapsed time: 00:00:13