
  OWA STORM WATER MANAGEMENT MODEL - VERSION v5.1.14 (OWA 2022-07-31)
  --------------------------------------------------------------

  WARNING 04: minimum elevation drop used for Conduit WS02004404WS02004405
  WARNING 03: negative offset ignored for Link YS02001904YS02001907
  
  *********************************************************
  NOTE: The summary statistics displayed in this report are
  based on results found at every computational time step,  
  not just on results from each reporting time step.
  *********************************************************
  
  ****************
  Analysis Options
  ****************
  Flow Units ............... LPS
  Process Models:
    Rainfall/Runoff ........ YES
    RDII ................... NO
    Snowmelt ............... NO
    Groundwater ............ NO
    Flow Routing ........... YES
    Ponding Allowed ........ NO
    Water Quality .......... NO
  Infiltration Method ...... HORTON
  Flow Routing Method ...... DYNWAVE
  Surcharge Method ......... EXTRAN
  Starting Date ............ 08/28/2015 08:00:00
  Ending Date .............. 08/28/2015 16:00:00
  Antecedent Dry Days ...... 8.0
  Report Time Step ......... 00:01:00
  Wet Time Step ............ 00:01:00
  Dry Time Step ............ 00:01:00
  Routing Time Step ........ 30.00 sec
  Variable Time Step ....... YES
  Maximum Trials ........... 8
  Number of Threads ........ 2
  Head Tolerance ........... 0.001500 m
  
  
  **************************        Volume         Depth
  Runoff Quantity Continuity     hectare-m            mm
  **************************     ---------       -------
  Initial LID Storage ......         0.072         1.184
  Total Precipitation ......         2.052        33.871
  Evaporation Loss .........         0.000         0.000
  Infiltration Loss ........         0.184         3.036
  Surface Runoff ...........         1.474        24.336
  Final Storage ............         0.466         7.698
  Continuity Error (%) .....        -0.044
  
  
  **************************        Volume        Volume
  Flow Routing Continuity        hectare-m      10^6 ltr
  **************************     ---------     ---------
  Dry Weather Inflow .......         0.630         6.296
  Wet Weather Inflow .......         1.474        14.743
  Groundwater Inflow .......         0.000         0.000
  RDII Inflow ..............         0.000         0.000
  External Inflow ..........         0.105         1.045
  External Outflow .........         1.696        16.960
  Flooding Loss ............         0.296         2.959
  Evaporation Loss .........         0.000         0.000
  Exfiltration Loss ........         0.000         0.000
  Initial Stored Volume ....         0.303         3.031
  Final Stored Volume ......         0.523         5.235
  Continuity Error (%) .....        -0.152
  
  
  *************************
  Highest Continuity Errors
  *************************
  Node YS02001583 (-7.42%)
  Node YS02001774 (5.30%)
  Node YS02001884 (5.14%)
  Node HS02004842 (2.39%)
  Node HS02004817 (1.71%)
  
  
  ***************************
  Time-Step Critical Elements
  ***************************
  Link WS02006252WS02006251 (71.20%)
  Link WS02006280WS02006229 (15.10%)
  Link WS02006238WS02006235 (4.50%)
  Link YS02001791YS02001793 (2.28%)
  
  
  ********************************
  Highest Flow Instability Indexes
  ********************************
  Link WS02006113WS02006111 (20)
  Link WS02004404WS02004405 (13)
  Link WS02006111WS02006112 (11)
  Link WS02006256WS02006235 (11)
  Link WS02004403WS02004404 (11)
  
  
  *************************
  Routing Time Step Summary
  *************************
  Minimum Time Step           :     0.01 sec
  Average Time Step           :     2.05 sec
  Maximum Time Step           :     6.46 sec
  Percent in Steady State     :    -0.00
  Average Iterations per Step :     2.78
  Percent Not Converging      :     7.79
  
  
  ***************************
  Subcatchment Runoff Summary
  ***************************
  
  ------------------------------------------------------------------------------------------------------------------------------
                            Total      Total      Total      Total     Imperv       Perv      Total       Total     Peak  Runoff
                           Precip      Runon       Evap      Infil     Runoff     Runoff     Runoff      Runoff   Runoff   Coeff
  Subcatchment                 mm         mm         mm         mm         mm         mm         mm    10^6 ltr      LPS
  ------------------------------------------------------------------------------------------------------------------------------
  sub0                      33.87       0.00       0.00       0.94      30.24       1.43      31.68        0.03    18.38   0.935
  sub1                      33.87       0.00       0.00       1.40      25.90       1.94      27.85        0.19   104.79   0.822
  sub10                     33.87       0.00       0.00       0.90      24.28       1.31      25.59        0.28   169.30   0.755
  sub11                     33.87       0.00       0.00       0.82      22.57       1.23      23.80        0.28   179.09   0.703
  sub12                     33.87       0.00       0.00       1.44      22.95       2.14      25.09        0.22   153.73   0.741
  sub14                     33.87       0.00       0.00       0.89      21.38       1.31      22.69        0.22   137.27   0.670
  sub15                     33.87       0.00       0.00       3.96      19.21       4.63      23.84        0.41   220.97   0.704
  sub16                     33.87       0.00       0.00       4.22      18.75       5.40      24.14        0.25   151.23   0.713
  sub17                     33.87       0.00       0.00       4.52      20.69       5.63      26.32        0.23   131.37   0.777
  sub2                      33.87       0.00       0.00       6.12      18.93       5.48      24.41        0.23   101.07   0.721
  sub22                     33.87       0.00       0.00       6.95      17.94       7.16      25.09        1.59   788.20   0.741
  sub23                     33.87       0.00       0.00       5.26      18.47       6.04      24.52        1.17   632.56   0.724
  sub3                      33.87       0.00       0.00       6.47      18.73       5.03      23.76        0.53   213.80   0.701
  sub4                      33.87       0.00       0.00       1.50      25.46       1.79      27.26        0.57   236.15   0.805
  sub5                      33.87       0.00       0.00       0.80      25.06       1.17      26.23        0.30   173.40   0.774
  sub60                     33.87       0.00       0.00       1.28      22.08       1.86      23.94        0.31   204.47   0.707
  sub61                     33.87       0.00       0.00       1.95      22.06       2.76      24.81        0.46   292.43   0.733
  sub62                     33.87       0.00       0.00       0.87      23.51       1.26      24.77        0.68   403.45   0.731
  sub63                     33.87       0.00       0.00       3.54      18.89       4.50      23.39        0.53   313.24   0.691
  sub64                     33.87       0.00       0.00       1.70      21.50       2.26      23.76        0.57   314.95   0.701
  sub65                     33.87       0.00       0.00       1.56      23.20       2.06      25.25        0.70   364.57   0.746
  sub66                     33.87       0.00       0.00       4.04      18.24       3.75      21.99        1.03   440.66   0.649
  sub67                     33.87       0.00       0.00       0.87      24.11       1.32      25.43        0.47   329.27   0.751
  sub68                     33.87       0.00       0.00       1.50      21.29       2.12      23.40        0.64   399.44   0.691
  sub69                     33.87       0.00       0.00       1.32      22.74       2.71      25.45        0.94   484.81   0.751
  sub7                      33.87       0.00       0.00       0.95      22.91       1.41      24.33        0.08    54.29   0.718
  sub70                     33.87       0.00       0.00       4.31      18.20       5.12      23.31        0.67   259.51   0.688
  sub71                     33.87       0.00       0.00       0.80      21.35       1.14      22.49        0.59   325.51   0.664
  sub72                     33.87       0.00       0.00       0.76      23.04       1.05      24.10        0.33   162.37   0.711
  sub8                      33.87       0.00       0.00       0.93      22.26       1.37      23.63        0.15    96.62   0.698
  sub9                      33.87       0.00       0.00       0.90      21.58       1.33      22.91        0.11    70.37   0.676
  

  ***********************
  LID Performance Summary
  ***********************

  --------------------------------------------------------------------------------------------------------------------
                                         Total      Evap     Infil   Surface    Drain    Initial     Final  Continuity
                                        Inflow      Loss      Loss   Outflow   Outflow   Storage   Storage       Error
  Subcatchment      LID Control             mm        mm        mm        mm        mm        mm        mm           %
  --------------------------------------------------------------------------------------------------------------------
  sub1              GreenRoof            33.87      0.00      0.00      0.00      0.00      7.05     40.97       -0.13
  sub10             GreenRoof            33.87      0.00      0.00      0.00      0.00      7.05     40.97       -0.13
  sub11             GreenRoof            33.87      0.00      0.00      0.00      0.00      7.05     40.97       -0.13
  sub12             GreenRoof            33.87      0.00      0.00      0.00      0.00      7.05     40.97       -0.13
  sub14             GreenRoof            33.87      0.00      0.00      0.00      0.00      7.05     40.97       -0.13
  sub15             GreenRoof            33.87      0.00      0.00      0.00      0.00      7.05     40.97       -0.13
  sub16             GreenRoof            33.87      0.00      0.00      0.00      0.00      7.05     40.97       -0.13
  sub17             GreenRoof            33.87      0.00      0.00      0.00      0.00      7.05     40.97       -0.13
  sub2              GreenRoof            33.87      0.00      0.00      0.00      0.00      7.05     40.97       -0.13
  sub22             GreenRoof            33.87      0.00      0.00      0.00      0.00      7.05     40.97       -0.13
  sub23             GreenRoof            33.87      0.00      0.00      0.00      0.00      7.05     40.97       -0.13
  sub3              GreenRoof            33.87      0.00      0.00      0.00      0.00      7.05     40.97       -0.13
  sub4              GreenRoof            33.87      0.00      0.00      0.00      0.00      7.05     40.97       -0.13
  sub5              GreenRoof            33.87      0.00      0.00      0.00      0.00      7.05     40.97       -0.13
  sub60             GreenRoof            33.87      0.00      0.00      0.00      0.00      7.05     40.97       -0.13
  sub61             GreenRoof            33.87      0.00      0.00      0.00      0.00      7.05     40.97       -0.13
  sub62             GreenRoof            33.87      0.00      0.00      0.00      0.00      7.05     40.97       -0.13
  sub63             GreenRoof            33.87      0.00      0.00      0.00      0.00      7.05     40.97       -0.13
  sub64             GreenRoof            33.87      0.00      0.00      0.00      0.00      7.05     40.97       -0.13
  sub65             GreenRoof            33.87      0.00      0.00      0.00      0.00      7.05     40.97       -0.13
  sub66             GreenRoof            33.87      0.00      0.00      0.00      0.00      7.05     40.97       -0.13
  sub67             GreenRoof            33.87      0.00      0.00      0.00      0.00      7.05     40.97       -0.13
  sub68             GreenRoof            33.87      0.00      0.00      0.00      0.00      7.05     40.97       -0.13
  sub69             GreenRoof            33.87      0.00      0.00      0.00      0.00      7.05     40.97       -0.13
  sub7              GreenRoof            33.87      0.00      0.00      0.00      0.00      7.05     40.97       -0.13
  sub70             GreenRoof            33.87      0.00      0.00      0.00      0.00      7.05     40.97       -0.13
  sub71             GreenRoof            33.87      0.00      0.00      0.00      0.00      7.05     40.97       -0.13
  sub72             GreenRoof            33.87      0.00      0.00      0.00      0.00      7.05     40.97       -0.13
  sub8              GreenRoof            33.87      0.00      0.00      0.00      0.00      7.05     40.97       -0.13
  sub9              GreenRoof            33.87      0.00      0.00      0.00      0.00      7.05     40.97       -0.13
  
  ******************
  Node Depth Summary
  ******************
  
  ---------------------------------------------------------------------------------
                                 Average  Maximum  Maximum  Time of Max    Reported
                                   Depth    Depth      HGL   Occurrence   Max Depth
  Node                 Type       Meters   Meters   Meters  days hr:min      Meters
  ---------------------------------------------------------------------------------
  HS02004478           JUNCTION     0.14     1.38    10.61     0  01:52        1.14
  HS02004479           JUNCTION     0.21     1.73    10.93     0  01:52        1.73
  HS02004480           JUNCTION     0.17     1.66    10.91     0  01:52        1.66
  HS02004770           JUNCTION     0.19     1.42    11.25     0  01:50        1.42
  HS02004777           JUNCTION     0.22     1.48    11.28     0  01:50        1.48
  HS02004785           JUNCTION     0.11     1.49    11.39     0  01:50        1.25
  HS02004788           JUNCTION     0.08     1.42    11.32     0  01:50        1.20
  HS02004792           JUNCTION     0.12     1.60    11.12     0  01:48        1.58
  HS02004799           JUNCTION     0.23     1.76    10.97     0  01:52        1.76
  HS02004802           JUNCTION     0.23     1.49    10.62     0  01:52        1.49
  HS02004807           JUNCTION     0.20     1.83    11.00     0  01:52        1.83
  HS02004817           JUNCTION     0.50     2.08    10.93     0  01:52        2.08
  HS02004824           JUNCTION     0.08     1.44    10.85     0  01:52        1.44
  HS02004830           JUNCTION     0.09     0.93    10.40     0  01:52        0.86
  HS02004837           JUNCTION     0.06     0.80    10.38     0  01:56        0.73
  HS02004842           JUNCTION     0.36     1.08    10.35     0  01:50        1.01
  HS02004848           JUNCTION     0.04     0.67    10.27     0  01:56        0.66
  HS02004852           JUNCTION     0.05     0.88    10.39     0  01:55        0.72
  HS02004856           JUNCTION     0.11     0.77    10.19     0  01:56        0.76
  HS02004862           JUNCTION     0.06     0.94    10.33     0  01:55        0.76
  HS02004870           JUNCTION     0.05     0.91    10.20     0  01:55        0.79
  HS02004876           JUNCTION     0.09     1.25    10.28     0  01:54        0.97
  HS02004881           JUNCTION     0.04     1.42    10.45     0  01:54        0.87
  HS02004901           JUNCTION     0.20     1.42    11.24     0  01:50        1.42
  WS02001211           JUNCTION     0.63     0.84     5.67     0  01:56        0.83
  WS02001212           JUNCTION     0.37     0.60     5.66     0  01:55        0.59
  WS02001213           JUNCTION     0.58     0.90     5.67     0  01:55        0.85
  WS02003059           JUNCTION     0.64     0.94     5.63     0  01:57        0.94
  WS02003060           JUNCTION     0.35     0.67     5.60     0  01:58        0.67
  WS02003066           JUNCTION     0.20     0.44     6.00     0  01:50        0.44
  WS02003067           JUNCTION     0.50     0.93     6.25     0  01:50        0.88
  WS02003069           JUNCTION     0.39     0.76     5.34     0  01:59        0.76
  WS02003072           JUNCTION     0.46     0.80     5.17     0  01:57        0.80
  WS02003073           JUNCTION     0.27     0.50     4.57     0  01:58        0.50
  WS02004138           JUNCTION     0.13     0.14     7.39     0  00:31        0.14
  WS02004139           JUNCTION     0.57     0.75     5.66     0  01:55        0.75
  WS02004401           JUNCTION     0.66     2.61     8.61     0  01:52        2.61
  WS02004402           JUNCTION     0.68     2.48     8.44     0  01:52        2.48
  WS02004403           JUNCTION     0.70     2.29     8.22     0  01:52        2.29
  WS02004404           JUNCTION     0.77     2.23     8.08     0  01:52        2.23
  WS02004405           JUNCTION     0.76     2.13     7.98     0  01:52        2.13
  WS02004406           JUNCTION     0.76     1.73     7.56     0  01:52        1.62
  WS02004407           JUNCTION     0.20     0.84     7.15     0  01:52        0.81
  WS02004409           JUNCTION     0.44     1.52     7.29     0  01:52        1.52
  WS02004410           JUNCTION     0.45     1.25     6.97     0  01:50        1.23
  WS02004411           JUNCTION     0.47     1.36     7.04     0  01:50        1.15
  WS02004412           JUNCTION     0.48     1.22     6.86     0  01:50        1.07
  WS02004413           JUNCTION     0.63     1.23     6.70     0  01:50        1.23
  WS02006109           JUNCTION     0.78     2.64     9.26     0  01:48        2.64
  WS02006110           JUNCTION     0.75     2.76     9.34     0  01:48        2.47
  WS02006111           JUNCTION     0.30     2.42     9.13     0  01:48        2.13
  WS02006112           JUNCTION     0.84     2.68     8.56     0  01:48        2.68
  WS02006113           JUNCTION     0.36     2.73     9.62     0  01:48        2.09
  WS02006115           JUNCTION     0.56     2.64     8.78     0  01:52        2.64
  WS02006116           JUNCTION     0.64     2.67     8.71     0  01:52        2.67
  WS02006228           JUNCTION     0.81     2.97     9.62     0  01:50        2.89
  WS02006229           JUNCTION     0.80     3.15     9.84     0  01:52        3.15
  WS02006230           JUNCTION     0.75     2.65     9.39     0  01:48        2.65
  WS02006231           JUNCTION     0.50     2.24     9.36     0  01:52        2.24
  WS02006232           JUNCTION     0.59     2.18     9.22     0  01:48        2.18
  WS02006234           JUNCTION     0.48     1.96     9.12     0  01:48        1.96
  WS02006235           JUNCTION     0.50     2.00     9.16     0  01:52        2.00
  WS02006238           JUNCTION     0.52     1.95     9.09     0  02:25        1.92
  WS02006239           JUNCTION     0.46     1.93     9.14     0  02:25        1.78
  WS02006240           JUNCTION     0.43     1.92     9.22     0  02:25        1.62
  WS02006242           JUNCTION     0.47     1.55     8.82     0  01:46        1.55
  WS02006243           JUNCTION     0.38     1.48     8.90     0  01:47        1.37
  WS02006245           JUNCTION     0.37     1.56     9.04     0  01:47        1.34
  WS02006247           JUNCTION     0.38     1.47     8.97     0  01:47        1.41
  WS02006248           JUNCTION     0.33     1.10     8.69     0  01:47        1.10
  WS02006249           JUNCTION     0.36     1.09     8.69     0  01:48        1.09
  WS02006251           JUNCTION     0.37     2.21     9.88     0  01:52        2.21
  WS02006252           JUNCTION     0.26     1.50     9.74     0  00:00        1.50
  WS02006253           JUNCTION     0.42     2.69    10.33     0  01:54        2.21
  WS02006256           JUNCTION     0.77     2.35     9.28     0  00:00        2.35
  WS02006280           JUNCTION     0.18     1.70     9.97     0  01:52        1.70
  WS02006284           JUNCTION     0.46     2.08    10.48     0  01:49        1.91
  WS02006287           JUNCTION     0.19     1.55    10.50     0  01:52        1.54
  WSF200               JUNCTION     0.19     0.51     5.74     0  01:50        0.50
  YS02001580           JUNCTION     0.03     1.05     9.59     0  01:51        0.64
  YS02001583           JUNCTION     0.06     1.14     9.64     0  01:51        0.68
  YS02001586           JUNCTION     0.10     1.13     9.30     0  01:51        1.00
  YS02001590           JUNCTION     0.18     1.40     9.26     0  01:51        1.27
  YS02001593           JUNCTION     0.12     1.41     9.27     0  01:52        1.20
  YS02001596           JUNCTION     0.16     1.74     9.16     0  01:52        1.58
  YS02001600           JUNCTION     0.21     1.87     9.00     0  01:51        1.83
  YS02001601           JUNCTION     0.39     2.06     8.90     0  01:49        2.06
  YS02001602           JUNCTION     0.32     1.87     8.77     0  01:51        1.87
  YS02001605           JUNCTION     0.29     1.78     8.68     0  01:51        1.78
  YS02001607           JUNCTION     0.30     1.68     8.53     0  01:52        1.68
  YS02001610           JUNCTION     0.34     1.68     8.48     0  01:51        1.68
  YS02001613           JUNCTION     0.30     1.70     8.54     0  01:52        1.70
  YS02001616           JUNCTION     0.23     1.60     8.51     0  01:51        1.30
  YS02001619           JUNCTION     0.21     1.57     8.50     0  01:51        1.27
  YS02001622           JUNCTION     0.20     1.55     8.45     0  01:51        1.26
  YS02001625           JUNCTION     0.46     1.78     8.38     0  01:51        1.52
  YS02001629           JUNCTION     0.31     1.85     8.40     0  01:51        1.49
  YS02001633           JUNCTION     0.39     1.80     8.26     0  01:51        1.49
  YS02001641           JUNCTION     0.38     1.40     7.83     0  01:51        1.25
  YS02001644           JUNCTION     0.38     1.22     7.65     0  01:51        1.18
  YS02001647           JUNCTION     0.17     0.91     7.52     0  01:59        0.90
  YS02001649           JUNCTION     0.30     1.06     7.45     0  02:03        1.06
  YS02001652           JUNCTION     0.13     0.88     7.47     0  02:00        0.85
  YS02001655           JUNCTION     0.07     0.61     7.46     0  02:00        0.59
  YS02001658           JUNCTION     0.04     0.27     7.41     0  02:00        0.27
  YS02001661           JUNCTION     0.10     0.31     7.71     0  01:51        0.31
  YS02001664           JUNCTION     0.04     0.21     8.14     0  01:51        0.21
  YS02001745           JUNCTION     0.03     0.19     7.71     0  01:50        0.19
  YS02001748           JUNCTION     0.04     0.25     7.32     0  02:01        0.24
  YS02001751           JUNCTION     0.05     0.45     7.33     0  02:01        0.44
  YS02001754           JUNCTION     0.11     0.73     7.34     0  02:02        0.72
  YS02001757           JUNCTION     0.40     1.07     7.33     0  01:56        1.06
  YS02001759           JUNCTION     0.32     0.97     7.34     0  01:59        0.97
  YS02001762           JUNCTION     0.29     0.93     7.33     0  02:00        0.92
  YS02001765           JUNCTION     0.25     0.89     7.34     0  01:59        0.89
  YS02001767           JUNCTION     0.22     0.85     7.34     0  01:59        0.84
  YS02001770           JUNCTION     0.22     0.85     7.34     0  01:59        0.84
  YS02001774           JUNCTION     0.28     0.92     7.34     0  01:59        0.91
  YS02001779           JUNCTION     0.07     0.66     7.34     0  01:59        0.65
  YS02001783           JUNCTION     0.15     0.92     7.06     0  01:56        0.92
  YS02001784           JUNCTION     0.18     0.86     6.93     0  01:56        0.85
  YS02001786           JUNCTION     0.16     0.70     6.73     0  01:56        0.69
  YS02001788           JUNCTION     0.11     0.54     6.52     0  01:56        0.54
  YS02001790           JUNCTION     0.13     0.64     6.28     0  01:56        0.63
  YS02001791           JUNCTION     0.09     0.38     5.85     0  01:57        0.38
  YS02001793           JUNCTION     0.05     0.34     5.17     0  02:26        0.19
  YS02001882           JUNCTION     0.20     1.05     7.77     0  01:53        1.03
  YS02001884           JUNCTION     0.28     1.14     7.76     0  01:55        1.12
  YS02001887           JUNCTION     0.36     1.21     7.75     0  01:55        1.19
  YS02001890           JUNCTION     0.39     1.24     7.74     0  01:56        1.22
  YS02001895           JUNCTION     0.17     0.98     7.73     0  01:56        0.98
  YS02001898           JUNCTION     0.18     1.00     7.74     0  01:56        1.00
  YS02001901           JUNCTION     0.28     1.12     7.73     0  01:55        1.12
  YS02001904           JUNCTION     0.27     1.10     7.73     0  01:55        1.09
  YS02001907           JUNCTION     0.58     1.45     7.73     0  01:55        1.43
  YS02001910           JUNCTION     0.38     1.24     7.75     0  01:56        1.23
  YS02001915           JUNCTION     0.19     1.05     7.76     0  01:54        1.04
  YS02001918           JUNCTION     0.07     0.70     7.76     0  01:56        0.69
  YS02001920           JUNCTION     0.15     0.76     7.76     0  01:55        0.75
  YS02001923           JUNCTION     0.05     0.51     7.77     0  01:55        0.50
  YS02001926           JUNCTION     0.10     0.36     7.80     0  01:56        0.36
  YS02001929           JUNCTION     0.04     0.19     7.88     0  01:53        0.19
  YS02006553           JUNCTION     0.59     1.44     7.72     0  01:55        1.42
  YS02006556           JUNCTION     0.56     1.38     7.69     0  01:56        1.36
  YS02006558           JUNCTION     0.60     1.42     7.68     0  01:56        1.40
  YS02006561           JUNCTION     0.09     0.50     7.16     0  01:56        0.50
  YS02163301           JUNCTION     0.33     1.87     8.39     0  01:51        1.48
  YS02163601           JUNCTION     0.43     1.67     8.07     0  01:51        1.42
  YS02164001           JUNCTION     0.36     1.50     7.95     0  01:51        1.29
  YSB1154              JUNCTION     0.34     1.96    11.01     0  01:52        1.96
  YSB1171              JUNCTION     0.49     1.95    10.85     0  01:50        1.95
  YSB1174              JUNCTION     0.29     1.80    10.91     0  01:50        1.73
  YSB6556              JUNCTION     0.24     1.80    10.97     0  01:52        1.80
  CC-1                 OUTFALL      0.00     0.00     0.00     0  00:00        0.00
  CC-2                 OUTFALL      0.00     0.00     0.00     0  00:00        0.00
  JK-1                 OUTFALL      0.00     0.00     0.00     0  00:00        0.00
  JK-2                 OUTFALL      0.00     0.00     0.00     0  00:00        0.00
  WSC                  OUTFALL      0.27     0.50     1.17     0  01:59        0.50
  CC-storage           STORAGE      1.08     1.43     6.93     0  02:30        1.43
  JK-storage           STORAGE      2.84     4.30     5.10     0  02:26        4.24
  XR-storage           STORAGE      7.94     9.26     7.26     0  08:00        9.26
  
  
  *******************
  Node Inflow Summary
  *******************
  
  -------------------------------------------------------------------------------------------------
                                  Maximum  Maximum                  Lateral       Total        Flow
                                  Lateral    Total  Time of Max      Inflow      Inflow     Balance
                                   Inflow   Inflow   Occurrence      Volume      Volume       Error
  Node                 Type           LPS      LPS  days hr:min    10^6 ltr    10^6 ltr     Percent
  -------------------------------------------------------------------------------------------------
  HS02004478           JUNCTION      0.00  2102.28     0  01:50           0         5.2      -0.027
  HS02004479           JUNCTION      0.00   356.48     0  01:50           0       0.526       0.088
  HS02004480           JUNCTION      0.00  2080.02     0  01:51           0        4.15       0.047
  HS02004770           JUNCTION    632.56   772.62     0  01:50        1.17        1.39       0.206
  HS02004777           JUNCTION      0.03   788.08     0  01:50    0.000864        1.37       0.368
  HS02004785           JUNCTION      0.15   793.22     0  01:50     0.00432        1.37       0.022
  HS02004788           JUNCTION    222.64   929.00     0  01:50       0.458        1.83      -0.017
  HS02004792           JUNCTION    788.48  1631.19     0  01:51        1.59        3.42       0.004
  HS02004799           JUNCTION    137.27  1766.47     0  01:51       0.216        3.63       0.065
  HS02004802           JUNCTION      0.00   327.22     0  02:11           0        1.11       0.359
  HS02004807           JUNCTION    179.09   446.87     0  01:50       0.277        1.18       0.352
  HS02004817           JUNCTION      0.60   443.50     0  01:50      0.0173       0.986       1.738
  HS02004824           JUNCTION    236.20   654.15     0  01:50        0.57        1.12       0.040
  HS02004830           JUNCTION      0.15   668.73     0  01:50     0.00432       0.697       0.153
  HS02004837           JUNCTION    175.65   786.58     0  01:51       0.465       0.848       0.100
  HS02004842           JUNCTION      0.00   743.75     0  01:51           0       0.538       2.447
  HS02004848           JUNCTION    213.80   951.62     0  01:51       0.535       0.928       0.009
  HS02004852           JUNCTION      0.00   905.70     0  01:52           0       0.797       0.003
  HS02004856           JUNCTION     70.37   940.99     0  01:52        0.11       0.907       0.159
  HS02004862           JUNCTION    101.27  1039.36     0  01:52       0.233        1.14       0.015
  HS02004870           JUNCTION     96.62  1140.87     0  01:52       0.151        1.29       0.009
  HS02004876           JUNCTION    104.79  1264.06     0  01:53       0.185        1.47       0.031
  HS02004881           JUNCTION     54.29  1202.42     0  01:53       0.082        1.56       0.033
  HS02004901           JUNCTION    151.23   193.24     0  01:52       0.253       0.257       0.678
  WS02001211           JUNCTION      7.35   308.38     0  01:54       0.212        5.45       0.609
  WS02001212           JUNCTION      0.00   277.85     0  01:52           0        5.42       0.290
  WS02001213           JUNCTION      0.00   277.34     0  01:57           0        5.41       0.328
  WS02003059           JUNCTION      0.00   284.05     0  01:51           0        5.41       0.591
  WS02003060           JUNCTION     16.53  1475.99     0  01:58       0.476        11.9       0.124
  WS02003066           JUNCTION      0.00  1245.30     0  01:52           0        6.04       0.024
  WS02003067           JUNCTION      0.00  1233.76     0  01:53           0        6.04       0.073
  WS02003069           JUNCTION      0.32  1449.26     0  01:58     0.00922        11.9       0.131
  WS02003072           JUNCTION      0.00  1443.00     0  01:59           0        11.8       0.177
  WS02003073           JUNCTION      1.82  1446.14     0  01:58      0.0524        11.9       0.183
  WS02004138           JUNCTION      0.00   380.00     0  00:00           0        5.25       0.054
  WS02004139           JUNCTION      0.32   240.64     0  01:53     0.00924        5.26       0.509
  WS02004401           JUNCTION      0.00  1255.95     0  01:50           0        6.15       0.171
  WS02004402           JUNCTION      0.00  1262.86     0  01:52           0        6.14       0.173
  WS02004403           JUNCTION      0.00  1278.30     0  01:52           0        6.13       0.167
  WS02004404           JUNCTION      0.16  1300.00     0  01:52     0.00467        6.12       0.140
  WS02004405           JUNCTION      0.04  1333.35     0  01:52      0.0011        6.12       0.207
  WS02004406           JUNCTION      0.00  1356.88     0  01:52           0         6.1       0.345
  WS02004407           JUNCTION      0.00  1363.53     0  01:52           0        6.08       0.026
  WS02004409           JUNCTION      0.00  1233.74     0  01:53           0        6.08       0.054
  WS02004410           JUNCTION      0.00  1233.45     0  01:53           0        6.08       0.080
  WS02004411           JUNCTION      0.00  1233.70     0  01:53           0        6.07       0.101
  WS02004412           JUNCTION      0.00  1233.31     0  01:53           0        6.07       0.133
  WS02004413           JUNCTION      0.00  1233.54     0  01:53           0        6.06       0.230
  WS02006109           JUNCTION      1.23  1135.04     0  01:50      0.0354        5.98       0.183
  WS02006110           JUNCTION      0.00  1136.33     0  01:50           0        5.96       0.124
  WS02006111           JUNCTION      0.00  1136.62     0  01:50           0        5.96       0.012
  WS02006112           JUNCTION    131.37  1266.32     0  01:50       0.226        6.18       0.289
  WS02006113           JUNCTION      0.00  1136.86     0  01:50           0        5.96       0.039
  WS02006115           JUNCTION      0.00  1264.44     0  01:50           0        6.16       0.113
  WS02006116           JUNCTION      0.00  1259.37     0  01:50           0        6.16       0.080
  WS02006228           JUNCTION      0.00  1131.31     0  01:50           0        5.95       0.093
  WS02006229           JUNCTION      0.00  1953.58     0  01:52           0        6.94       0.122
  WS02006230           JUNCTION     10.28   843.14     0  01:52       0.296        2.78       0.324
  WS02006231           JUNCTION      0.00   453.23     0  02:00           0        2.24      -0.246
  WS02006232           JUNCTION      0.00   454.04     0  01:52           0        2.22       0.363
  WS02006234           JUNCTION      0.00   453.08     0  01:52           0        2.19      -0.324
  WS02006235           JUNCTION      0.00   413.73     0  02:42           0        2.19       0.347
  WS02006238           JUNCTION      0.00   407.61     0  02:07           0        1.98      -0.191
  WS02006239           JUNCTION      0.00   401.50     0  02:04           0        1.94      -0.120
  WS02006240           JUNCTION      0.00   401.10     0  02:04           0         1.9       0.028
  WS02006242           JUNCTION      0.00   401.20     0  01:52           0        1.87       0.050
  WS02006243           JUNCTION      0.00   371.48     0  00:05           0        1.68       0.006
  WS02006245           JUNCTION      0.00   383.09     0  00:05           0        1.67       0.501
  WS02006247           JUNCTION      0.00   385.59     0  00:04           0        1.67       0.034
  WS02006248           JUNCTION      0.00   484.31     0  01:47           0        1.75      -0.056
  WS02006249           JUNCTION      0.00  1220.14     0  01:54           0        2.98       0.184
  WS02006251           JUNCTION      0.08  1204.35     0  01:54     0.00222        2.97      -0.041
  WS02006252           JUNCTION      0.00   400.00     0  00:00           0        1.36      -0.111
  WS02006253           JUNCTION     18.38  1084.70     0  01:53      0.0257         1.6      -0.028
  WS02006256           JUNCTION      0.00   300.00     0  00:00           0        0.33      -1.410
  WS02006280           JUNCTION      0.00  1945.92     0  01:52           0        5.17      -0.022
  WS02006284           JUNCTION      0.10  1940.87     0  01:52     0.00275        5.17       0.026
  WS02006287           JUNCTION      0.00  1932.57     0  01:52           0        5.17       0.044
  WSF200               JUNCTION      0.00  1244.07     0  01:52           0        6.04       0.013
  YS02001580           JUNCTION      0.00   123.42     0  01:51           0     0.00404      -4.297
  YS02001583           JUNCTION      0.00   187.53     0  01:51           0      0.0149      -6.910
  YS02001586           JUNCTION    259.51   281.85     0  01:52       0.673       0.685       0.239
  YS02001590           JUNCTION      0.00   280.39     0  01:52           0       0.672      -0.030
  YS02001593           JUNCTION      0.00   269.87     0  01:52           0       0.672       0.033
  YS02001596           JUNCTION      0.00   261.64     0  01:51           0       0.672      -0.003
  YS02001600           JUNCTION      0.00   262.34     0  01:51           0       0.672       0.022
  YS02001601           JUNCTION    484.81   747.08     0  01:51       0.942        1.61       0.059
  YS02001602           JUNCTION      0.00   563.83     0  01:50           0        1.48       0.027
  YS02001605           JUNCTION      0.00   563.41     0  01:50           0        1.48       0.025
  YS02001607           JUNCTION      0.00   562.86     0  01:50           0        1.48       0.122
  YS02001610           JUNCTION      0.00   545.40     0  01:51           0        1.48       0.142
  YS02001613           JUNCTION      0.00   566.39     0  01:51           0        1.48       0.105
  YS02001616           JUNCTION      0.00   584.42     0  01:51           0        1.48       0.027
  YS02001619           JUNCTION    440.66   938.93     0  01:51        1.03         2.5      -0.006
  YS02001622           JUNCTION      0.00   935.76     0  01:51           0         2.5      -0.009
  YS02001625           JUNCTION      0.00   940.71     0  01:51           0         2.5       0.354
  YS02001629           JUNCTION      0.00   941.55     0  01:51           0        2.49       0.031
  YS02001633           JUNCTION    364.77  1271.00     0  01:51       0.701        3.19       0.127
  YS02001641           JUNCTION      0.00  1272.43     0  01:51           0        3.19       0.105
  YS02001644           JUNCTION    314.99  1586.44     0  01:51       0.572        3.75       0.102
  YS02001647           JUNCTION      0.00  1590.87     0  01:51           0        3.74       0.013
  YS02001649           JUNCTION      0.00  1973.04     0  01:53           0        4.28       0.174
  YS02001652           JUNCTION      0.00   405.23     0  01:52           0       0.535      -0.263
  YS02001655           JUNCTION      0.15   317.87     0  01:52     0.00443       0.535       0.265
  YS02001658           JUNCTION      0.00   312.98     0  01:51           0       0.531      -0.020
  YS02001661           JUNCTION      0.00   313.05     0  01:51           0       0.531       0.063
  YS02001664           JUNCTION    313.24   313.24     0  01:51       0.531       0.531      -0.007
  YS02001745           JUNCTION    204.47   204.47     0  01:51       0.315       0.315       0.061
  YS02001748           JUNCTION      0.04   204.61     0  01:50      0.0013       0.316      -0.043
  YS02001751           JUNCTION      0.01   205.21     0  01:50    0.000317       0.316       0.441
  YS02001754           JUNCTION      0.26   213.33     0  01:50     0.00749       0.324      -0.401
  YS02001757           JUNCTION      0.00  2586.33     0  01:54           0        5.75       0.662
  YS02001759           JUNCTION    292.47   604.98     0  01:54       0.457        1.18       0.450
  YS02001762           JUNCTION      0.00   384.09     0  01:54           0       0.725       0.570
  YS02001765           JUNCTION      0.00   376.41     0  01:55           0       0.721       0.490
  YS02001767           JUNCTION      0.54   398.30     0  01:55      0.0154       0.716       0.532
  YS02001770           JUNCTION    403.60   403.60     0  01:51       0.683       0.743       0.393
  YS02001774           JUNCTION      0.00    98.53     0  01:52           0      0.0727       5.594
  YS02001779           JUNCTION      0.01    59.05     0  01:53    0.000144      0.0191       0.103
  YS02001783           JUNCTION      0.00   971.81     0  01:56           0        2.09       0.012
  YS02001784           JUNCTION      1.06   973.34     0  01:56      0.0305        2.12       0.023
  YS02001786           JUNCTION      0.06   972.85     0  01:56     0.00162        2.12       0.030
  YS02001788           JUNCTION      0.07   972.26     0  01:56     0.00204        2.12       0.015
  YS02001790           JUNCTION      0.15   974.66     0  01:57     0.00446        2.13       0.023
  YS02001791           JUNCTION      0.00  1052.06     0  01:56           0        2.13       0.002
  YS02001793           JUNCTION      0.00   995.25     0  01:57           0        2.13       0.014
  YS02001882           JUNCTION      0.00    35.27     0  01:53           0      0.0124       5.141
  YS02001884           JUNCTION      0.00    62.28     0  01:49           0       0.048       5.418
  YS02001887           JUNCTION    329.72   329.72     0  01:50       0.486       0.519       0.859
  YS02001890           JUNCTION      0.00   283.60     0  01:50           0       0.478       1.076
  YS02001895           JUNCTION      0.00   283.37     0  01:53           0       0.473       0.322
  YS02001898           JUNCTION      0.00   278.22     0  01:54           0       0.472       0.075
  YS02001901           JUNCTION      0.00   261.31     0  01:54           0       0.475       0.659
  YS02001904           JUNCTION      0.00   261.81     0  01:54           0        0.48       0.600
  YS02001907           JUNCTION      0.00   678.15     0  01:58           0        1.48       1.214
  YS02001910           JUNCTION      0.00   473.23     0  01:59           0           1       0.716
  YS02001915           JUNCTION    325.53   467.47     0  01:57       0.589           1       0.160
  YS02001918           JUNCTION      0.00   195.00     0  01:58           0       0.415       0.071
  YS02001920           JUNCTION      2.87   181.57     0  01:57      0.0827       0.416       0.255
  YS02001923           JUNCTION      0.04   163.15     0  01:54     0.00109       0.334      -0.036
  YS02001926           JUNCTION      0.05   162.34     0  01:53      0.0015       0.333       0.120
  YS02001929           JUNCTION    162.37   162.37     0  01:53       0.331       0.331      -0.007
  YS02006553           JUNCTION      0.00   677.96     0  01:58           0        1.47       0.809
  YS02006556           JUNCTION      0.00   677.94     0  01:58           0        1.48       0.560
  YS02006558           JUNCTION    400.32   973.43     0  01:55       0.669        2.12       0.162
  YS02006561           JUNCTION      0.00   972.98     0  01:56           0        2.09       0.002
  YS02163301           JUNCTION      0.00   905.79     0  01:51           0        2.49       0.077
  YS02163601           JUNCTION      0.11  1271.91     0  01:51     0.00317        3.19       0.173
  YS02164001           JUNCTION      0.00  1272.24     0  01:51           0        3.19       0.088
  YSB1154              JUNCTION    173.40   173.40     0  01:51       0.297       0.298       0.459
  YSB1171              JUNCTION      0.00   343.94     0  01:50           0       0.525       1.166
  YSB1174              JUNCTION    153.73   153.73     0  01:50       0.219        0.22       0.522
  YSB6556              JUNCTION      0.00   174.70     0  01:50           0       0.299       0.322
  CC-1                 OUTFALL       0.00   683.00     0  00:00           0        2.49       0.000
  CC-2                 OUTFALL       0.00   683.00     0  00:00           0       0.841       0.000
  JK-1                 OUTFALL       0.00  1000.00     0  00:00           0        1.52       0.000
  JK-2                 OUTFALL       0.00  1000.00     0  00:00           0       0.265       0.000
  WSC                  OUTFALL       0.00  1447.62     0  01:59           0        11.8       0.000
  CC-storage           STORAGE       0.00  2435.69     0  01:54           0        7.92       0.116
  JK-storage           STORAGE       0.00   982.19     0  01:57           0        2.28       0.052
  XR-storage           STORAGE     200.00   200.00     0  00:00        5.76        6.36       0.001
  
  
  **********************
  Node Surcharge Summary
  **********************
  
  Surcharging occurs when water rises above the top of the highest conduit.
  ---------------------------------------------------------------------
                                               Max. Height   Min. Depth
                                   Hours       Above Crown    Below Rim
  Node                 Type      Surcharged         Meters       Meters
  ---------------------------------------------------------------------
  HS02004478           JUNCTION        0.14          0.461        0.479
  HS02004479           JUNCTION        0.26          0.927        0.123
  HS02004480           JUNCTION        0.30          0.954        0.146
  HS02004770           JUNCTION        0.22          0.720        0.000
  HS02004777           JUNCTION        0.23          0.780        0.000
  HS02004785           JUNCTION        0.18          0.790        0.000
  HS02004788           JUNCTION        0.17          0.720        0.000
  HS02004792           JUNCTION        0.27          0.900        0.000
  HS02004799           JUNCTION        0.35          1.060        0.000
  HS02004802           JUNCTION        0.30          0.777        0.433
  HS02004807           JUNCTION        0.28          1.127        0.093
  HS02004817           JUNCTION        0.70          1.380        0.360
  HS02004824           JUNCTION        0.16          0.744        0.566
  HS02004830           JUNCTION        0.14          0.230        1.100
  HS02004837           JUNCTION        0.02          0.098        1.242
  HS02004842           JUNCTION        0.21          0.378        1.142
  HS02004852           JUNCTION        0.03          0.177        1.243
  HS02004862           JUNCTION        0.07          0.244        1.056
  HS02004870           JUNCTION        0.09          0.211        1.189
  HS02004876           JUNCTION        0.15          0.551        1.009
  HS02004881           JUNCTION        0.13          0.720        0.730
  HS02004901           JUNCTION        0.23          0.720        0.000
  WS02004401           JUNCTION        1.09          1.605        0.055
  WS02004402           JUNCTION        1.11          1.482        0.258
  WS02004403           JUNCTION        1.11          1.293        0.737
  WS02004404           JUNCTION        1.25          1.235        1.545
  WS02004405           JUNCTION        1.21          1.128        1.672
  WS02004406           JUNCTION        1.19          0.732        1.718
  WS02004409           JUNCTION        0.47          0.519        1.841
  WS02004410           JUNCTION        0.44          0.253        2.287
  WS02004411           JUNCTION        0.40          0.365        2.165
  WS02004412           JUNCTION        0.35          0.220        2.090
  WS02004413           JUNCTION        0.68          0.227        1.973
  WS02006109           JUNCTION        1.49          1.820        0.000
  WS02006110           JUNCTION        1.37          1.850        0.000
  WS02006111           JUNCTION        0.62          1.610        0.260
  WS02006112           JUNCTION        1.41          1.680        0.000
  WS02006113           JUNCTION        0.62          1.930        0.000
  WS02006115           JUNCTION        0.99          1.633        0.617
  WS02006116           JUNCTION        1.02          1.614        0.676
  WS02006228           JUNCTION        1.48          2.139        0.061
  WS02006229           JUNCTION        0.43          0.971        0.099
  WS02006230           JUNCTION        1.21          1.570        0.000
  WS02006231           JUNCTION        1.25          1.530        0.000
  WS02006232           JUNCTION        1.38          1.480        0.000
  WS02006234           JUNCTION        1.29          1.240        0.000
  WS02006235           JUNCTION        1.32          1.290        0.000
  WS02006238           JUNCTION        1.34          1.231        0.199
  WS02006239           JUNCTION        1.28          1.194        0.096
  WS02006240           JUNCTION        1.24          1.214        0.176
  WS02006242           JUNCTION        1.30          0.820        0.000
  WS02006243           JUNCTION        1.17          0.770        0.000
  WS02006245           JUNCTION        1.13          0.850        0.000
  WS02006247           JUNCTION        1.14          0.760        0.000
  WS02006248           JUNCTION        1.09          0.380        0.000
  WS02006249           JUNCTION        1.10          0.390        0.000
  WS02006251           JUNCTION        0.91          1.180        0.000
  WS02006252           JUNCTION        1.03          1.100        0.000
  WS02006253           JUNCTION        0.92          1.649        0.831
  WS02006256           JUNCTION        7.98          2.050        0.000
  WS02006280           JUNCTION        0.36          0.652        0.128
  WS02006284           JUNCTION        0.31          0.800        0.000
  WS02006287           JUNCTION        0.23          0.547        0.343
  YS02001580           JUNCTION        0.09          0.450        0.000
  YS02001583           JUNCTION        0.11          0.500        0.000
  YS02001586           JUNCTION        0.28          0.510        0.000
  YS02001590           JUNCTION        0.34          0.750        0.000
  YS02001593           JUNCTION        0.34          0.787        0.053
  YS02001596           JUNCTION        0.42          1.014        0.056
  YS02001600           JUNCTION        0.52          1.190        0.000
  YS02001601           JUNCTION        0.82          1.440        0.000
  YS02001602           JUNCTION        0.71          1.270        0.000
  YS02001605           JUNCTION        0.67          1.180        0.000
  YS02001607           JUNCTION        0.29          0.680        0.000
  YS02001610           JUNCTION        0.31          0.680        0.000
  YS02001613           JUNCTION        0.28          0.700        0.000
  YS02001616           JUNCTION        0.25          0.599        0.011
  YS02001619           JUNCTION        0.24          0.574        0.036
  YS02001622           JUNCTION        0.23          0.548        0.072
  YS02001625           JUNCTION        0.39          0.780        0.000
  YS02001629           JUNCTION        0.17          0.470        0.000
  YS02001633           JUNCTION        0.40          0.783        0.277
  YS02001641           JUNCTION        0.34          0.396        0.704
  YS02001644           JUNCTION        0.31          0.221        0.699
  YS02001649           JUNCTION        0.11          0.061        0.989
  YS02001757           JUNCTION        0.16          0.073        1.137
  YS02001783           JUNCTION        0.15          0.121        1.479
  YS02001784           JUNCTION        0.12          0.059        1.431
  YS02001882           JUNCTION        0.03          0.050        0.780
  YS02001884           JUNCTION        0.08          0.082        0.788
  YS02001887           JUNCTION        0.14          0.164        0.786
  YS02001890           JUNCTION        0.16          0.188        0.572
  YS02001901           JUNCTION        0.12          0.124        0.746
  YS02001904           JUNCTION        0.11          0.102        0.748
  YS02001907           JUNCTION        0.33          0.436        0.514
  YS02001910           JUNCTION        0.19          0.242        0.858
  YS02001915           JUNCTION        0.05          0.046        0.954
  YS02006553           JUNCTION        0.34          0.436        0.754
  YS02006556           JUNCTION        0.26          0.342        1.008
  YS02006558           JUNCTION        0.25          0.316        1.084
  YS02163301           JUNCTION        0.39          0.873        0.157
  YS02163601           JUNCTION        0.42          0.674        0.406
  YS02164001           JUNCTION        0.35          0.496        0.604
  YSB1154              JUNCTION        0.44          1.255        0.145
  YSB1171              JUNCTION        0.44          1.100        0.000
  YSB1174              JUNCTION        0.38          1.100        0.150
  YSB6556              JUNCTION        0.34          1.100        0.000
  
  
  *********************
  Node Flooding Summary
  *********************
  
  Flooding refers to all water that overflows a node, whether it ponds or not.
  --------------------------------------------------------------------------
                                                             Total   Maximum
                                 Maximum   Time of Max       Flood    Ponded
                        Hours       Rate    Occurrence      Volume     Depth
  Node                 Flooded       LPS   days hr:min    10^6 ltr    Meters
  --------------------------------------------------------------------------
  HS02004770              0.04    172.80      0  01:50       0.010     0.000
  HS02004777              0.01     39.66      0  01:50       0.000     0.000
  HS02004785              0.01    145.06      0  01:50       0.000     0.000
  HS02004788              0.01    376.31      0  01:50       0.002     0.000
  HS02004792              0.01    179.36      0  01:48       0.001     0.000
  HS02004799              0.01      0.58      0  01:52       0.000     0.000
  HS02004901              0.09    191.98      0  01:52       0.038     0.000
  WS02006109              0.02     83.62      0  01:52       0.001     0.000
  WS02006110              0.01     31.78      0  01:48       0.000     0.000
  WS02006112              0.01     85.57      0  01:48       0.001     0.000
  WS02006113              0.01     54.57      0  01:48       0.000     0.000
  WS02006230              0.32    389.37      0  01:52       0.249     0.000
  WS02006231              0.01      0.33      0  01:52       0.000     0.000
  WS02006232              0.09      1.78      0  01:48       0.000     0.000
  WS02006234              0.34     57.40      0  01:50       0.066     0.000
  WS02006235              0.01      1.10      0  01:52       0.000     0.000
  WS02006242              0.41    168.03      0  01:46       0.163     0.000
  WS02006243              0.01    185.71      0  01:47       0.001     0.000
  WS02006245              0.01    181.19      0  01:47       0.000     0.000
  WS02006247              0.01    250.87      0  01:47       0.001     0.000
  WS02006248              0.62    384.62      0  01:47       0.521     0.000
  WS02006249              0.90   1220.08      0  01:54       1.690     0.000
  WS02006251              0.01      1.89      0  01:52       0.000     0.000
  WS02006252              0.01    245.63      0  00:00       0.001     0.000
  WS02006256              0.29    293.19      0  00:00       0.080     0.000
  WS02006284              0.01    225.33      0  01:49       0.000     0.000
  YS02001580              0.01     80.27      0  01:51       0.000     0.000
  YS02001583              0.01     65.46      0  01:51       0.000     0.000
  YS02001586              0.01     83.63      0  01:51       0.001     0.000
  YS02001590              0.01     13.68      0  01:51       0.000     0.000
  YS02001600              0.01     10.06      0  01:52       0.000     0.000
  YS02001601              0.21    320.36      0  01:51       0.132     0.000
  YS02001602              0.01     24.14      0  01:51       0.000     0.000
  YS02001605              0.01      5.37      0  01:51       0.000     0.000
  YS02001607              0.01      1.10      0  01:52       0.000     0.000
  YS02001610              0.01     27.22      0  01:51       0.000     0.000
  YS02001613              0.01      1.09      0  01:52       0.000     0.000
  YS02001625              0.01     27.52      0  01:51       0.000     0.000
  YS02001629              0.01    111.51      0  01:51       0.000     0.000
  YSB1171                 0.01     20.20      0  01:50       0.000     0.000
  YSB6556                 0.01      0.37      0  01:52       0.000     0.000
  
  
  **********************
  Storage Volume Summary
  **********************
  
  --------------------------------------------------------------------------------------------------
                         Average     Avg  Evap Exfil       Maximum     Max    Time of Max    Maximum
                          Volume    Pcnt  Pcnt  Pcnt        Volume    Pcnt     Occurrence    Outflow
  Storage Unit           1000 m3    Full  Loss  Loss       1000 m3    Full    days hr:min        LPS
  --------------------------------------------------------------------------------------------------
  CC-storage               3.023      47     0     0         3.992      62       0  02:30    1783.53
  JK-storage               0.143      49     0     0         0.216      74       0  02:26    2300.00
  XR-storage               0.953      66     0     0         1.111      77       0  08:00     380.00
  
  
  ***********************
  Outfall Loading Summary
  ***********************
  
  -----------------------------------------------------------
                         Flow       Avg       Max       Total
                         Freq      Flow      Flow      Volume
  Outfall Node           Pcnt       LPS       LPS    10^6 ltr
  -----------------------------------------------------------
  CC-1                  18.55    629.57    683.00       2.486
  CC-2                   7.05    542.44    683.00       0.841
  JK-1                  12.17    691.42   1000.00       1.522
  JK-2                   3.43    328.36   1000.00       0.265
  WSC                   99.96    527.71   1447.62      11.845
  -----------------------------------------------------------
  System                28.23   2719.51   1447.62      16.960
  
  
  ********************
  Link Flow Summary
  ********************
  
  -----------------------------------------------------------------------------
                                 Maximum  Time of Max   Maximum    Max/    Max/
                                  |Flow|   Occurrence   |Veloc|    Full    Full
  Link                 Type          LPS  days hr:min     m/sec    Flow   Depth
  -----------------------------------------------------------------------------
  1                    CONDUIT   1447.62     0  01:59      3.66    0.50    0.50
  HS02004478WS02006287 CONDUIT   1932.57     0  01:52      2.78    0.54    1.00
  HS02004479HS02004480 CONDUIT    372.69     0  01:50      0.53    0.36    1.00
  HS02004480HS02004478 CONDUIT   2102.28     0  01:50      3.00    8.85    1.00
  HS02004770HS02004777 CONDUIT    788.05     0  01:50      1.13    1.44    1.00
  HS02004777HS02004785 CONDUIT    793.07     0  01:50      1.21    0.98    1.00
  HS02004785HS02004788 CONDUIT    713.04     0  01:50      1.36    5.38    1.00
  HS02004788HS02004792 CONDUIT    861.53     0  01:55      1.44    0.57    1.00
  HS02004792HS02004799 CONDUIT   1629.60     0  01:51      2.33    1.00    1.00
  HS02004799HS02004480 CONDUIT   1763.79     0  01:51      2.52    2.23    1.00
  HS02004802HS02004478 CONDUIT    342.62     0  02:10      0.67    0.30    1.00
  HS02004807HS02004802 CONDUIT    327.22     0  02:11      0.60    0.62    1.00
  HS02004817HS02004807 CONDUIT    442.90     0  01:50      0.63    0.26    1.00
  HS02004817HS02004824 CONDUIT    444.86     0  01:50      0.64    0.20    1.00
  HS02004824HS02004830 CONDUIT    668.58     0  01:50      1.00    0.87    1.00
  HS02004830HS02004837 CONDUIT    611.26     0  01:51      0.95    0.61    1.00
  HS02004837HS02004842 CONDUIT    743.75     0  01:51      1.06    0.44    1.00
  HS02004842HS02004848 CONDUIT    744.41     0  01:51      1.17    0.43    0.98
  HS02004848HS02004852 CONDUIT    905.70     0  01:52      1.54    1.02    0.98
  HS02004852HS02004856 CONDUIT    873.84     0  01:52      1.42    1.00    1.00
  HS02004856HS02004862 CONDUIT    938.25     0  01:52      1.65    0.94    1.00
  HS02004862HS02004870 CONDUIT   1051.10     0  01:52      1.93    1.14    1.00
  HS02004870HS02004876 CONDUIT   1161.97     0  01:53      2.06    0.77    1.00
  HS02004876HS02004881 CONDUIT   1155.55     0  01:53      2.52   12.29    1.00
  HS02004881HS02006253 CONDUIT   1070.49     0  01:53      2.76    0.21    1.00
  HS02004901HS02004770 CONDUIT    155.09     0  01:50      0.22    0.58    1.00
  WS02001211WS02001212 CONDUIT    277.46     0  01:56      0.54    0.21    0.69
  WS02001212WS02001213 CONDUIT    277.34     0  01:57      1.04    0.43    0.58
  WS02001213WS02003059 CONDUIT    252.48     0  01:55      0.47    0.42    0.89
  WS02003059WS02003060 CONDUIT    265.37     0  01:58      0.67    0.17    0.80
  WS02003060WS02003069 CONDUIT   1448.94     0  01:58      2.08    0.57    0.59
  WS02003066WSF200     CONDUIT   1244.07     0  01:52      3.56    0.21    0.37
  WS02003067WS02003066 CONDUIT   1245.30     0  01:52      1.98    0.40    0.57
  WS02003069WS02003072 CONDUIT   1443.00     0  01:59      1.87    0.69    0.65
  WS02003072WS02003073 CONDUIT   1444.32     0  01:58      2.02    3.12    0.60
  WS02004138WS02004139 CONDUIT    190.00     0  00:31      2.15    0.04    0.42
  WS02004139WS02001211 CONDUIT    301.03     0  01:54      0.54    0.38    0.61
  WS02004401WS02004402 CONDUIT   1262.86     0  01:52      1.61    1.52    1.00
  WS02004402WS02004403 CONDUIT   1278.30     0  01:52      1.63    1.84    1.00
  WS02004403WS02004404 CONDUIT   1299.83     0  01:52      1.65    0.94    1.00
  WS02004404WS02004405 CONDUIT   1333.31     0  01:52      1.70   13.06    1.00
  WS02004405WS02004406 CONDUIT   1356.88     0  01:52      1.73    2.68    1.00
  WS02004406WS02004407 CONDUIT   1363.53     0  01:52      2.05    0.61    0.92
  WS02004407WS02004409 CONDUIT   1233.74     0  01:53      2.07    0.44    0.92
  WS02004409WS02004410 CONDUIT   1233.45     0  01:53      1.57    1.60    1.00
  WS02004410WS02004411 CONDUIT   1233.70     0  01:53      1.57    1.69    1.00
  WS02004411WS02004412 CONDUIT   1233.31     0  01:53      1.57    1.75    1.00
  WS02004412WS02004413 CONDUIT   1233.54     0  01:53      1.57    0.83    1.00
  WS02004413WS02003067 CONDUIT   1233.76     0  01:53      1.93    0.53    0.76
  WS02006109WS02006110 CONDUIT   1136.33     0  01:50      2.26    2.18    1.00
  WS02006110WS02006113 CONDUIT   1136.86     0  01:50      2.26    1.03    1.00
  WS02006111WS02006112 CONDUIT   1135.84     0  01:50      2.26    0.54    1.00
  WS02006112WS02006115 CONDUIT   1264.44     0  01:50      1.61    0.75    1.00
  WS02006113WS02006111 CONDUIT   1136.62     0  01:50      2.68    1.36    1.00
  WS02006115WS02006116 CONDUIT   1259.37     0  01:50      1.60    1.62    1.00
  WS02006116WS02004401 CONDUIT   1255.95     0  01:50      1.60    1.73    1.00
  WS02006228WS02006109 CONDUIT   1133.81     0  01:50      2.26    4.95    1.00
  WS02006229WS02006228 CONDUIT   1131.31     0  01:50      2.25    3.75    1.00
  WS02006230WS02006229 CONDUIT    832.86     0  01:52      2.16   18.53    1.00
  WS02006231WS02006230 CONDUIT    453.23     0  02:00      1.18    6.87    1.00
  WS02006232WS02006231 CONDUIT    454.04     0  01:52      1.18    0.95    1.00
  WS02006234WS02006232 CONDUIT    453.08     0  01:52      1.41    0.92    1.00
  WS02006235WS02006234 CONDUIT    414.80     0  02:42      1.23    4.38    1.00
  WS02006238WS02006235 CONDUIT    407.61     0  02:07      1.45    0.91    1.00
  WS02006239WS02006238 CONDUIT    401.50     0  02:04      1.12    1.28    1.00
  WS02006240WS02006239 CONDUIT    401.10     0  02:04      1.26    1.26    1.00
  WS02006242WS02006240 CONDUIT    401.20     0  01:52      1.14    1.59    1.00
  WS02006243WS02006242 CONDUIT    357.32     0  00:05      1.34    0.76    1.00
  WS02006245WS02006243 CONDUIT    371.48     0  00:05      1.39    1.10    1.00
  WS02006247WS02006245 CONDUIT    383.09     0  00:05      1.37    3.04    1.00
  WS02006248WS02006247 CONDUIT    385.59     0  00:04      1.38    0.84    1.00
  WS02006249WS02006248 CONDUIT    390.96     0  00:04      1.38    2.14    1.00
  WS02006251WS02006249 CONDUIT   1206.79     0  01:54      3.14    3.48    1.00
  WS02006252WS02006251 CONDUIT    409.62     0  02:20      3.88    1.50    1.00
  WS02006253WS02006251 CONDUIT   1070.48     0  01:53      2.78    3.21    1.00
  WS02006256WS02006235 CONDUIT    288.93     0  00:00      4.23    3.06    1.00
  WS02006280WS02006229 CONDUIT   1953.58     0  01:52      4.76    0.42    1.00
  WS02006284WS02006280 CONDUIT   1945.92     0  01:52      3.13    0.81    1.00
  WS02006287WS02006284 CONDUIT   1940.77     0  01:52      2.93    0.90    1.00
  WSF200WS02003060     CONDUIT   1300.69     0  01:50      2.74    0.29    0.49
  YS02001580YS02001583 CONDUIT    123.42     0  01:51      0.77    0.48    1.00
  YS02001583YS02001586 CONDUIT    154.98     0  01:51      0.72    0.23    1.00
  YS02001586YS02001590 CONDUIT    280.39     0  01:52      1.31    0.49    1.00
  YS02001590YS02001593 CONDUIT    269.87     0  01:52      1.03    1.69    1.00
  YS02001593YS02001596 CONDUIT    261.64     0  01:51      1.70    0.41    1.00
  YS02001596YS02001600 CONDUIT    262.34     0  01:51      1.18    0.51    1.00
  YS02001600YS02001601 CONDUIT    262.97     0  01:51      0.93    0.45    1.00
  YS02001601YS02001602 CONDUIT    563.83     0  01:50      1.99    2.04    1.00
  YS02001602YS02001605 CONDUIT    563.41     0  01:50      1.99   11.92    1.00
  YS02001605YS02001607 CONDUIT    562.86     0  01:50      1.99    3.09    1.00
  YS02001607YS02001610 CONDUIT    545.40     0  01:51      0.72    0.52    1.00
  YS02001610YS02001613 CONDUIT    566.39     0  01:51      0.72    0.65    1.00
  YS02001613YS02001616 CONDUIT    584.42     0  01:51      0.75    0.50    1.00
  YS02001616YS02001619 CONDUIT    520.89     0  01:51      0.67    0.90    1.00
  YS02001619YS02001622 CONDUIT    935.76     0  01:51      1.32    1.38    1.00
  YS02001622YS02001625 CONDUIT    940.71     0  01:51      1.20    0.50    1.00
  YS02001625YS02001629 CONDUIT    941.55     0  01:51      1.20    0.45    1.00
  YS02001629YS02163301 CONDUIT    905.79     0  01:51      1.15    1.12    1.00
  YS02001633YS02163601 CONDUIT   1271.80     0  01:51      1.62    1.34    1.00
  YS02001641YS02001644 CONDUIT   1272.36     0  01:51      1.62    4.11    1.00
  YS02001644YS02001647 CONDUIT   1590.87     0  01:51      2.18    0.93    0.95
  YS02001647YS02001649 CONDUIT   1619.74     0  01:52      2.32    0.86    0.95
  YS02001649YS02001757 CONDUIT   1942.16     0  01:53      2.57    1.18    1.00
  YS02001652YS02001649 CONDUIT    423.39     0  01:53      0.81    0.21    0.94
  YS02001655YS02001652 CONDUIT    405.23     0  01:52      1.58    0.20    0.71
  YS02001658YS02001655 CONDUIT    317.72     0  01:52      1.98    0.13    0.43
  YS02001661YS02001658 CONDUIT    312.98     0  01:51      2.14    0.12    0.24
  YS02001664YS02001661 CONDUIT    313.05     0  01:51      1.94    0.10    0.26
  YS02001745YS02001748 CONDUIT    204.57     0  01:50      1.97    0.08    0.19
  YS02001748YS02001751 CONDUIT    205.20     0  01:50      1.65    0.10    0.34
  YS02001751YS02001754 CONDUIT    213.07     0  01:50      1.61    0.10    0.56
  YS02001754YS02001757 CONDUIT    256.05     0  01:54      0.61    0.10    0.86
  YS02001757CaochengTiaoxuchi CONDUIT   2435.69     0  01:54      3.19    1.05    1.00
  YS02001759YS02001757 CONDUIT    586.14     0  01:54      1.03    0.42    0.99
  YS02001762YS02001759 CONDUIT    366.22     0  01:54      0.57    0.42    0.95
  YS02001765YS02001762 CONDUIT    384.09     0  01:54      0.73    0.36    0.91
  YS02001767YS02001765 CONDUIT    376.41     0  01:55      0.87    0.47    0.86
  YS02001770YS02001767 CONDUIT    397.76     0  01:55      0.91    1.58    0.85
  YS02001774YS02001770 CONDUIT     98.53     0  01:52      0.19    0.06    0.87
  YS02001779YS02001774 CONDUIT     59.04     0  01:53      0.10    0.03    0.79
  YS02001783YS02001784 CONDUIT    972.28     0  01:56      1.93    1.34    1.00
  YS02001784YS02001785 CONDUIT    972.79     0  01:56      1.99    2.26    0.93
  YS02001786YS02001788 CONDUIT    972.18     0  01:56      2.34    1.87    0.77
  YS02001788YS02001790 CONDUIT    974.51     0  01:57      2.49    0.72    0.74
  YS02001790YS02001791 CONDUIT   1052.06     0  01:56      3.16    1.14    0.63
  YS02001791YS02001793 CONDUIT    995.25     0  01:57      6.27    0.43    0.36
  YS02001793JiankangQianchi CONDUIT    982.19     0  01:57      2.01    0.08    0.67
  YS02001882YS02001884 CONDUIT     35.27     0  01:53      0.10    0.04    1.00
  YS02001884YS02001887 CONDUIT     62.28     0  01:49      0.10    0.08    1.00
  YS02001887YS02001890 CONDUIT    283.60     0  01:50      0.38    0.49    1.00
  YS02001890YS02001895 CONDUIT    283.37     0  01:53      0.39    0.13    0.99
  YS02001895YS02001898 CONDUIT    278.22     0  01:54      0.42    0.48    0.98
  YS02001898YS02001901 CONDUIT    261.31     0  01:54      0.36    0.17    1.00
  YS02001901YS02001904 CONDUIT    261.81     0  01:54      0.35    0.41    1.00
  YS02001904YS02001907 CONDUIT    261.08     0  01:54      0.33    0.09    1.00
  YS02001907YS02006553 CONDUIT    677.96     0  01:58      0.75    0.80    1.00
  YS02001910YS02001907 CONDUIT    472.84     0  01:59      0.60    0.27    1.00
  YS02001915YS02001910 CONDUIT    473.23     0  01:59      0.61    0.24    1.00
  YS02001918YS02001915 CONDUIT    220.00     0  01:58      0.44    0.12    0.85
  YS02001920YS02001918 CONDUIT    195.00     0  01:58      0.67    0.19    0.72
  YS02001923YS02001920 CONDUIT    178.70     0  01:57      0.82    0.08    0.63
  YS02001926YS02001923 CONDUIT    163.11     0  01:54      0.92    0.23    0.32
  YS02001929YS02001926 CONDUIT    162.28     0  01:53      1.01    0.08    0.27
  YS02006553YS02006556 CONDUIT    677.94     0  01:58      0.86    0.58    1.00
  YS02006556YS02006558 CONDUIT    679.08     0  01:58      0.86    0.54    1.00
  YS02006558YS02006561 CONDUIT    972.98     0  01:56      3.60    2.15    0.91
  YS02006561YS02001783 CONDUIT    971.81     0  01:56      2.23    0.50    0.81
  YS02163301YS02001633 CONDUIT    908.13     0  01:51      1.16    0.85    1.00
  YS02163601YS02164001 CONDUIT   1272.24     0  01:51      1.62    1.13    1.00
  YS02164001YS02001641 CONDUIT   1272.43     0  01:51      1.62    1.74    1.00
  YSB1154YSB6556       CONDUIT    174.70     0  01:50      0.45    0.31    1.00
  YSB1171HS02004479    CONDUIT    356.48     0  01:50      0.71    0.24    1.00
  YSB1174YSB1171       CONDUIT    156.78     0  01:50      0.41    0.24    1.00
  YSB6556YSB1171       CONDUIT    187.16     0  01:50      0.49    0.19    1.00
  CC-R1                PUMP       683.00     0  00:00              1.00
  CC-R2                PUMP       683.00     0  00:00              1.00
  CC-S1                PUMP       200.00     0  00:00              1.00
  CC-S2                PUMP       200.00     0  00:00              1.00
  JK-R1                PUMP      1000.00     0  00:00              1.00
  JK-R2                PUMP      1000.00     0  00:00              1.00
  JK-S                 PUMP       300.00     0  00:00              1.00
  XR-1                 PUMP        95.00     0  00:00              1.00
  XR-2                 PUMP        95.00     0  00:00              1.00
  XR-3                 PUMP        95.00     0  00:00              1.00
  XR-4                 PUMP        95.00     0  00:00              1.00
  
  
  ***************************
  Flow Classification Summary
  ***************************
  
  -------------------------------------------------------------------------------------
                      Adjusted    ---------- Fraction of Time in Flow Class ---------- 
                       /Actual         Up    Down  Sub   Sup   Up    Down  Norm  Inlet 
  Conduit               Length    Dry  Dry   Dry   Crit  Crit  Crit  Crit  Ltd   Ctrl  
  -------------------------------------------------------------------------------------
  1                       1.00   0.00  0.00  0.00  0.00  1.00  0.00  0.00  0.40  0.00
  HS02004478WS02006287    1.00   0.12  0.00  0.00  0.58  0.30  0.00  0.00  0.63  0.00
  HS02004479HS02004480    1.00   0.03  0.00  0.00  0.97  0.00  0.00  0.00  0.12  0.00
  HS02004480HS02004478    1.00   0.10  0.00  0.00  0.50  0.00  0.00  0.41  0.00  0.00
  HS02004770HS02004777    1.00   0.00  0.09  0.00  0.91  0.00  0.00  0.00  0.03  0.00
  HS02004777HS02004785    1.00   0.00  0.00  0.00  1.00  0.00  0.00  0.00  0.13  0.00
  HS02004785HS02004788    1.00   0.00  0.00  0.00  1.00  0.00  0.00  0.00  0.00  0.00
  HS02004788HS02004792    1.00   0.00  0.00  0.00  0.99  0.01  0.00  0.00  0.94  0.00
  HS02004792HS02004799    1.00   0.00  0.00  0.00  0.99  0.01  0.00  0.00  0.92  0.00
  HS02004799HS02004480    1.00   0.00  0.02  0.00  0.88  0.00  0.09  0.00  0.00  0.00
  HS02004802HS02004478    1.00   0.10  0.01  0.00  0.90  0.00  0.00  0.00  0.03  0.00
  HS02004807HS02004802    1.00   0.09  0.00  0.00  0.89  0.00  0.00  0.02  0.00  0.00
  HS02004817HS02004807    1.00   0.00  0.09  0.00  0.91  0.00  0.00  0.00  0.01  0.00
  HS02004817HS02004824    1.00   0.00  0.00  0.00  1.00  0.00  0.00  0.00  0.88  0.00
  HS02004824HS02004830    1.00   0.00  0.00  0.00  1.00  0.00  0.00  0.00  0.01  0.00
  HS02004830HS02004837    1.00   0.00  0.00  0.00  1.00  0.00  0.00  0.00  0.93  0.00
  HS02004837HS02004842    1.00   0.00  0.00  0.00  1.00  0.00  0.00  0.00  0.11  0.00
  HS02004842HS02004848    1.00   0.00  0.09  0.00  0.91  0.00  0.00  0.00  0.61  0.00
  HS02004848HS02004852    1.00   0.09  0.00  0.00  0.91  0.00  0.00  0.00  0.73  0.00
  HS02004852HS02004856    1.00   0.09  0.01  0.00  0.90  0.00  0.00  0.00  0.75  0.00
  HS02004856HS02004862    1.00   0.00  0.14  0.00  0.86  0.00  0.00  0.00  0.77  0.00
  HS02004862HS02004870    1.00   0.00  0.00  0.00  1.00  0.00  0.00  0.00  0.04  0.00
  HS02004870HS02004876    1.00   0.00  0.00  0.00  0.99  0.01  0.00  0.00  0.90  0.00
  HS02004876HS02004881    1.00   0.02  0.00  0.00  0.78  0.21  0.00  0.00  0.00  0.00
  HS02004881HS02006253    1.00   0.03  0.01  0.00  0.36  0.02  0.00  0.58  0.17  0.00
  HS02004901HS02004770    1.00   0.09  0.00  0.00  0.91  0.00  0.00  0.00  0.00  0.00
  WS02001211WS02001212    1.00   0.00  0.02  0.00  0.98  0.00  0.00  0.00  0.00  0.00
  WS02001212WS02001213    1.00   0.02  0.00  0.00  0.38  0.00  0.60  0.00  0.00  0.00
  WS02001213WS02003059    1.00   0.00  0.00  0.00  0.99  0.00  0.00  0.00  0.00  0.00
  WS02003059WS02003060    1.00   0.00  0.00  0.00  1.00  0.00  0.00  0.00  0.03  0.00
  WS02003060WS02003069    1.00   0.00  0.00  0.00  0.99  0.01  0.00  0.00  0.54  0.00
  WS02003066WSF200        1.00   0.09  0.00  0.00  0.00  0.91  0.00  0.00  0.68  0.00
  WS02003067WS02003066    1.00   0.07  0.01  0.00  0.91  0.00  0.00  0.00  0.00  0.00
  WS02003069WS02003072    1.00   0.00  0.00  0.00  1.00  0.00  0.00  0.00  0.74  0.00
  WS02003072WS02003073    1.00   0.00  0.00  0.00  0.00  0.00  0.00  1.00  0.00  0.00
  WS02004138WS02004139    1.00   0.00  0.00  0.00  0.98  0.00  0.00  0.01  0.98  0.00
  WS02004139WS02001211    1.00   0.00  0.00  0.00  1.00  0.00  0.00  0.00  0.00  0.00
  WS02004401WS02004402    1.00   0.02  0.00  0.00  0.98  0.00  0.00  0.00  0.00  0.00
  WS02004402WS02004403    1.00   0.02  0.00  0.00  0.98  0.00  0.00  0.00  0.00  0.00
  WS02004403WS02004404    1.00   0.00  0.02  0.00  0.98  0.00  0.00  0.00  0.00  0.00
  WS02004404WS02004405    1.00   0.00  0.00  0.00  1.00  0.00  0.00  0.00  0.00  0.00
  WS02004405WS02004406    1.00   0.00  0.00  0.00  1.00  0.00  0.00  0.00  0.00  0.00
  WS02004406WS02004407    1.00   0.00  0.04  0.00  0.96  0.00  0.00  0.00  0.00  0.00
  WS02004407WS02004409    1.00   0.04  0.00  0.00  0.96  0.01  0.00  0.00  0.88  0.00
  WS02004409WS02004410    1.00   0.04  0.00  0.00  0.96  0.00  0.00  0.00  0.02  0.00
  WS02004410WS02004411    1.00   0.04  0.00  0.00  0.96  0.00  0.00  0.00  0.00  0.00
  WS02004411WS02004412    1.00   0.04  0.00  0.00  0.96  0.00  0.00  0.00  0.00  0.00
  WS02004412WS02004413    1.00   0.04  0.00  0.00  0.96  0.00  0.00  0.00  0.01  0.00
  WS02004413WS02003067    1.00   0.04  0.03  0.00  0.00  0.00  0.93  0.00  0.00  0.00
  WS02006109WS02006110    1.00   0.00  0.01  0.00  0.99  0.00  0.01  0.00  0.00  0.00
  WS02006110WS02006113    1.00   0.01  0.01  0.00  0.99  0.00  0.00  0.00  0.00  0.00
  WS02006111WS02006112    1.00   0.02  0.00  0.00  0.98  0.00  0.00  0.00  0.83  0.00
  WS02006112WS02006115    1.00   0.02  0.00  0.00  0.98  0.00  0.00  0.00  0.00  0.00
  WS02006113WS02006111    1.00   0.01  0.00  0.00  0.18  0.81  0.00  0.00  0.07  0.00
  WS02006115WS02006116    1.00   0.02  0.00  0.00  0.98  0.00  0.00  0.01  0.00  0.00
  WS02006116WS02004401    1.00   0.02  0.00  0.00  0.98  0.00  0.00  0.00  0.00  0.00
  WS02006228WS02006109    1.00   0.00  0.00  0.00  1.00  0.00  0.00  0.00  0.00  0.00
  WS02006229WS02006228    1.00   0.00  0.00  0.00  0.99  0.00  0.00  0.01  0.00  0.00
  WS02006230WS02006229    1.00   0.00  0.00  0.00  0.99  0.00  0.00  0.01  0.02  0.00
  WS02006231WS02006230    1.00   0.00  0.00  0.00  0.40  0.00  0.60  0.00  0.00  0.00
  WS02006232WS02006231    1.00   0.00  0.00  0.00  0.99  0.00  0.00  0.00  0.00  0.00
  WS02006234WS02006232    1.00   0.00  0.00  0.00  1.00  0.00  0.00  0.00  0.00  0.00
  WS02006235WS02006234    1.00   0.00  0.00  0.00  0.76  0.00  0.24  0.00  0.00  0.00
  WS02006238WS02006235    1.00   0.00  0.00  0.00  1.00  0.00  0.00  0.00  0.00  0.00
  WS02006239WS02006238    1.00   0.00  0.00  0.00  1.00  0.00  0.00  0.00  0.05  0.00
  WS02006240WS02006239    1.00   0.00  0.00  0.00  0.59  0.00  0.00  0.41  0.01  0.00
  WS02006242WS02006240    1.00   0.00  0.00  0.00  0.99  0.00  0.01  0.00  0.00  0.00
  WS02006243WS02006242    1.00   0.00  0.00  0.00  1.00  0.00  0.00  0.00  0.71  0.00
  WS02006245WS02006243    1.00   0.00  0.00  0.00  0.94  0.00  0.00  0.06  0.01  0.00
  WS02006247WS02006245    1.00   0.00  0.00  0.00  0.99  0.00  0.00  0.01  0.00  0.00
  WS02006248WS02006247    1.00   0.00  0.00  0.00  1.00  0.00  0.00  0.00  0.74  0.00
  WS02006249WS02006248    1.00   0.00  0.00  0.00  0.44  0.00  0.56  0.00  0.00  0.00
  WS02006251WS02006249    1.00   0.00  0.00  0.00  1.00  0.00  0.00  0.00  0.73  0.00
  WS02006252WS02006251    1.00   0.00  0.01  0.00  0.18  0.00  0.81  0.00  0.00  0.00
  WS02006253WS02006251    1.00   0.00  0.00  0.00  1.00  0.00  0.00  0.00  0.00  0.00
  WS02006256WS02006235    1.00   0.00  0.00  0.00  1.00  0.00  0.00  0.00  0.00  0.00
  WS02006280WS02006229    1.00   0.10  0.00  0.00  0.10  0.06  0.00  0.73  0.02  0.00
  WS02006284WS02006280    1.00   0.10  0.00  0.00  0.07  0.01  0.00  0.82  0.00  0.00
  WS02006287WS02006284    1.00   0.07  0.05  0.00  0.48  0.40  0.00  0.00  0.67  0.00
  WSF200WS02003060        1.00   0.00  0.09  0.00  0.57  0.34  0.00  0.00  0.65  0.00
  YS02001580YS02001583    1.00   0.19  0.61  0.00  0.20  0.00  0.00  0.00  0.73  0.00
  YS02001583YS02001586    1.00   0.39  0.26  0.00  0.35  0.00  0.00  0.00  0.73  0.00
  YS02001586YS02001590    1.00   0.09  0.00  0.00  0.50  0.03  0.00  0.37  0.32  0.00
  YS02001590YS02001593    1.00   0.09  0.01  0.00  0.07  0.00  0.83  0.00  0.00  0.00
  YS02001593YS02001596    1.00   0.10  0.00  0.00  0.09  0.01  0.00  0.80  0.01  0.00
  YS02001596YS02001600    1.00   0.10  0.00  0.00  0.17  0.02  0.00  0.70  0.05  0.00
  YS02001600YS02001601    1.00   0.10  0.01  0.00  0.90  0.00  0.00  0.00  0.66  0.00
  YS02001601YS02001602    1.00   0.09  0.01  0.00  0.90  0.00  0.00  0.00  0.00  0.00
  YS02001602YS02001605    1.00   0.10  0.00  0.00  0.90  0.00  0.00  0.00  0.00  0.00
  YS02001605YS02001607    1.00   0.10  0.00  0.00  0.90  0.00  0.00  0.00  0.00  0.00
  YS02001607YS02001610    1.00   0.10  0.01  0.00  0.89  0.00  0.00  0.00  0.02  0.00
  YS02001610YS02001613    1.00   0.10  0.00  0.00  0.90  0.00  0.00  0.00  0.01  0.00
  YS02001613YS02001616    1.00   0.09  0.00  0.00  0.91  0.00  0.00  0.00  0.01  0.00
  YS02001616YS02001619    1.00   0.09  0.00  0.00  0.91  0.00  0.00  0.00  0.00  0.00
  YS02001619YS02001622    1.00   0.09  0.00  0.00  0.91  0.00  0.00  0.00  0.37  0.00
  YS02001622YS02001625    1.00   0.09  0.00  0.00  0.91  0.00  0.00  0.00  0.06  0.00
  YS02001625YS02001629    1.00   0.09  0.05  0.00  0.12  0.00  0.74  0.00  0.00  0.00
  YS02001629YS02163301    1.00   0.12  0.01  0.00  0.87  0.00  0.00  0.00  0.00  0.00
  YS02001633YS02163601    1.00   0.00  0.00  0.00  1.00  0.00  0.00  0.00  0.16  0.00
  YS02001641YS02001644    1.00   0.00  0.00  0.00  1.00  0.00  0.00  0.00  0.00  0.00
  YS02001644YS02001647    1.00   0.00  0.14  0.00  0.86  0.00  0.00  0.00  0.00  0.00
  YS02001647YS02001649    1.00   0.00  0.14  0.00  0.82  0.04  0.00  0.00  0.27  0.00
  YS02001649YS02001757    1.00   0.00  0.00  0.00  0.99  0.01  0.00  0.00  0.20  0.00
  YS02001652YS02001649    1.00   0.00  0.00  0.00  0.97  0.03  0.00  0.00  0.18  0.00
  YS02001655YS02001652    1.00   0.00  0.00  0.00  0.60  0.04  0.00  0.36  0.62  0.00
  YS02001658YS02001655    1.00   0.00  0.11  0.00  0.50  0.39  0.00  0.00  0.77  0.00
  YS02001661YS02001658    1.00   0.11  0.00  0.00  0.34  0.55  0.00  0.00  0.77  0.00
  YS02001664YS02001661    1.00   0.09  0.00  0.00  0.79  0.12  0.00  0.00  0.87  0.00
  YS02001745YS02001748    1.00   0.00  0.00  0.00  0.00  0.01  0.00  0.99  0.01  0.00
  YS02001748YS02001751    1.00   0.00  0.00  0.00  0.68  0.32  0.00  0.00  0.82  0.00
  YS02001751YS02001754    1.00   0.00  0.00  0.00  0.19  0.01  0.00  0.80  0.10  0.00
  YS02001754YS02001757    1.00   0.00  0.00  0.00  1.00  0.00  0.00  0.00  0.23  0.00
  YS02001757CaochengTiaoxuchi    1.00   0.00  0.00  0.00  1.00  0.00  0.00  0.00  0.22  0.00
  YS02001759YS02001757    1.00   0.00  0.00  0.00  1.00  0.00  0.00  0.00  0.06  0.00
  YS02001762YS02001759    1.00   0.00  0.00  0.00  1.00  0.00  0.00  0.00  0.05  0.00
  YS02001765YS02001762    1.00   0.00  0.00  0.00  1.00  0.00  0.00  0.00  0.17  0.00
  YS02001767YS02001765    1.00   0.00  0.00  0.00  1.00  0.00  0.00  0.00  0.00  0.00
  YS02001770YS02001767    1.00   0.00  0.00  0.00  1.00  0.00  0.00  0.00  0.00  0.00
  YS02001774YS02001770    1.00   0.00  0.10  0.00  0.90  0.00  0.00  0.00  0.04  0.00
  YS02001779YS02001774    1.00   0.00  0.00  0.00  1.00  0.00  0.00  0.00  0.81  0.00
  YS02001783YS02001784    1.00   0.00  0.15  0.00  0.85  0.00  0.00  0.00  0.59  0.00
  YS02001784YS02001785    1.00   0.00  0.00  0.00  1.00  0.00  0.00  0.00  0.18  0.00
  YS02001786YS02001788    1.00   0.00  0.00  0.00  0.63  0.37  0.00  0.00  0.00  0.00
  YS02001788YS02001790    1.00   0.00  0.00  0.00  0.15  0.85  0.00  0.00  0.89  0.00
  YS02001790YS02001791    1.00   0.00  0.00  0.00  0.01  0.99  0.00  0.00  0.16  0.00
  YS02001791YS02001793    1.00   0.00  0.00  0.00  0.00  1.00  0.00  0.00  0.00  0.00
  YS02001793JiankangQianchi    1.00   0.00  0.00  0.00  1.00  0.00  0.00  0.00  0.99  0.00
  YS02001882YS02001884    1.00   0.12  0.01  0.00  0.87  0.00  0.00  0.00  0.00  0.00
  YS02001884YS02001887    1.00   0.04  0.04  0.00  0.92  0.00  0.00  0.00  0.00  0.00
  YS02001887YS02001890    1.00   0.00  0.00  0.00  0.98  0.00  0.02  0.00  0.00  0.00
  YS02001890YS02001895    1.00   0.00  0.13  0.00  0.87  0.00  0.00  0.00  0.00  0.00
  YS02001895YS02001898    1.00   0.13  0.00  0.00  0.85  0.00  0.01  0.00  0.00  0.00
  YS02001898YS02001901    1.00   0.13  0.00  0.00  0.86  0.00  0.00  0.00  0.01  0.00
  YS02001901YS02001904    1.00   0.13  0.00  0.00  0.87  0.00  0.00  0.00  0.00  0.00
  YS02001904YS02001907    1.00   0.00  0.13  0.00  0.87  0.00  0.00  0.00  0.00  0.00
  YS02001907YS02006553    1.00   0.00  0.02  0.00  0.98  0.00  0.00  0.00  0.00  0.00
  YS02001910YS02001907    1.00   0.00  0.00  0.00  0.98  0.00  0.00  0.02  0.12  0.00
  YS02001915YS02001910    1.00   0.00  0.00  0.00  0.97  0.03  0.00  0.00  0.17  0.00
  YS02001918YS02001915    1.00   0.00  0.00  0.00  0.98  0.01  0.00  0.00  0.80  0.00
  YS02001920YS02001918    1.00   0.00  0.00  0.00  1.00  0.00  0.00  0.00  0.00  0.00
  YS02001923YS02001920    1.00   0.00  0.00  0.00  1.00  0.00  0.00  0.00  0.97  0.00
  YS02001926YS02001923    1.00   0.00  0.05  0.00  0.01  0.00  0.93  0.00  0.00  0.00
  YS02001929YS02001926    1.00   0.00  0.09  0.00  0.91  0.00  0.00  0.00  0.87  0.00
  YS02006553YS02006556    1.00   0.01  0.00  0.00  0.99  0.00  0.00  0.00  0.03  0.00
  YS02006556YS02006558    1.00   0.00  0.00  0.00  1.00  0.00  0.00  0.00  0.00  0.00
  YS02006558YS02006561    1.00   0.14  0.00  0.00  0.00  0.85  0.00  0.00  0.19  0.00
  YS02006561YS02001783    1.00   0.14  0.00  0.00  0.05  0.81  0.00  0.00  0.73  0.00
  YS02163301YS02001633    1.00   0.00  0.12  0.00  0.88  0.00  0.00  0.00  0.00  0.00
  YS02163601YS02164001    1.00   0.00  0.06  0.00  0.94  0.00  0.00  0.00  0.00  0.00
  YS02164001YS02001641    1.00   0.00  0.05  0.00  0.94  0.00  0.00  0.00  0.06  0.00
  YSB1154YSB6556          1.00   0.09  0.00  0.00  0.91  0.00  0.00  0.00  0.02  0.00
  YSB1171HS02004479       1.00   0.03  0.00  0.00  0.96  0.00  0.00  0.01  0.11  0.00
  YSB1174YSB1171          1.00   0.04  0.03  0.00  0.93  0.00  0.00  0.00  0.00  0.00
  YSB6556YSB1171          1.00   0.03  0.06  0.00  0.91  0.00  0.00  0.00  0.00  0.00
  
  
  *************************
  Conduit Surcharge Summary
  *************************
  
  ----------------------------------------------------------------------------
                                                           Hours        Hours 
                         --------- Hours Full --------   Above Full   Capacity
  Conduit                Both Ends  Upstream  Dnstream   Normal Flow   Limited
  ----------------------------------------------------------------------------
  HS02004478WS02006287        0.15      0.15      0.29      0.01         0.01
  HS02004479HS02004480        0.30      0.30      0.31      0.01         0.01
  HS02004480HS02004478        0.23      0.30      0.23      1.25         0.23
  HS02004770HS02004777        0.22      0.22      0.23      0.18         0.12
  HS02004777HS02004785        0.18      0.18      0.23      0.01         0.01
  HS02004785HS02004788        0.17      0.18      0.17      0.89         0.16
  HS02004788HS02004792        0.17      0.17      0.27      0.01         0.01
  HS02004792HS02004799        0.27      0.27      0.35      0.01         0.01
  HS02004799HS02004480        0.30      0.30      0.35      0.42         0.01
  HS02004802HS02004478        0.24      0.24      0.30      0.01         0.01
  HS02004807HS02004802        0.28      0.28      0.30      0.01         0.01
  HS02004817HS02004807        0.28      0.28      0.70      0.01         0.01
  HS02004817HS02004824        0.16      0.16      0.70      0.01         0.01
  HS02004824HS02004830        0.14      0.14      0.16      0.01         0.01
  HS02004830HS02004837        0.02      0.02      0.14      0.01         0.01
  HS02004837HS02004842        0.02      0.02      0.21      0.01         0.01
  HS02004842HS02004848        0.01      0.01      0.21      0.01         0.01
  HS02004848HS02004852        0.01      0.01      0.03      0.01         0.01
  HS02004852HS02004856        0.03      0.03      0.06      0.01         0.01
  HS02004856HS02004862        0.01      0.01      0.07      0.01         0.01
  HS02004862HS02004870        0.07      0.07      0.09      0.03         0.01
  HS02004870HS02004876        0.09      0.09      0.15      0.01         0.01
  HS02004876HS02004881        0.13      0.15      0.13      0.88         0.13
  HS02004881HS02006253        0.13      0.13      0.92      0.01         0.01
  HS02004901HS02004770        0.22      0.22      0.23      0.01         0.01
  WS02003072WS02003073        0.01      0.01      0.01      1.81         0.01
  WS02004401WS02004402        1.09      1.09      1.11      0.88         0.86
  WS02004402WS02004403        1.11      1.11      1.11      1.09         1.08
  WS02004403WS02004404        1.11      1.11      1.25      0.01         0.01
  WS02004404WS02004405        1.21      1.25      1.21      2.46         1.21
  WS02004405WS02004406        1.19      1.21      1.19      1.39         1.18
  WS02004406WS02004407        0.01      0.01      1.19      0.01         0.01
  WS02004407WS02004409        0.01      0.01      0.47      0.01         0.01
  WS02004409WS02004410        0.44      0.47      0.44      0.99         0.43
  WS02004410WS02004411        0.40      0.44      0.40      1.07         0.40
  WS02004411WS02004412        0.35      0.40      0.35      1.09         0.35
  WS02004412WS02004413        0.35      0.35      0.68      0.01         0.01
  WS02004413WS02003067        0.01      0.01      0.68      0.01         0.01
  WS02006109WS02006110        1.37      1.37      1.51      1.38         0.01
  WS02006110WS02006113        0.62      0.62      1.50      0.20         0.01
  WS02006111WS02006112        0.62      0.62      1.75      0.01         0.01
  WS02006112WS02006115        0.99      0.99      1.41      0.01         0.01
  WS02006113WS02006111        0.62      0.62      0.62      0.80         0.62
  WS02006115WS02006116        1.01      1.01      1.02      0.99         0.97
  WS02006116WS02004401        1.09      1.09      1.09      1.08         1.06
  WS02006228WS02006109        1.49      1.51      1.49      1.83         1.49
  WS02006229WS02006228        1.48      1.49      1.48      1.74         1.48
  WS02006230WS02006229        1.53      1.64      1.53      2.94         0.93
  WS02006231WS02006230        1.21      1.21      1.27      2.36         0.52
  WS02006232WS02006231        1.25      1.25      1.38      0.01         0.07
  WS02006234WS02006232        1.32      1.32      1.38      0.01         0.01
  WS02006235WS02006234        1.28      1.29      1.32      1.97         0.49
  WS02006238WS02006235        1.34      1.34      1.35      0.01         0.14
  WS02006239WS02006238        1.33      1.33      1.34      0.51         0.13
  WS02006240WS02006239        1.26      1.26      1.28      0.49         0.12
  WS02006242WS02006240        1.24      1.24      1.32      0.99         0.42
  WS02006243WS02006242        1.18      1.18      1.30      0.01         0.01
  WS02006245WS02006243        1.14      1.14      1.17      0.09         0.08
  WS02006247WS02006245        1.13      1.15      1.13      1.53         0.54
  WS02006248WS02006247        1.10      1.10      1.14      0.01         0.01
  WS02006249WS02006248        1.08      1.09      1.10      0.89         0.01
  WS02006251WS02006249        1.07      1.07      1.10      0.83         0.78
  WS02006252WS02006251        0.99      0.99      1.03      0.33         0.01
  WS02006253WS02006251        1.07      1.07      1.09      0.38         0.04
  WS02006256WS02006235        2.18      2.21      7.97      0.29         0.01
  WS02006280WS02006229        0.37      0.37      0.43      0.01         0.01
  WS02006284WS02006280        0.31      0.31      0.36      0.01         0.01
  WS02006287WS02006284        0.23      0.23      0.31      0.01         0.01
  YS02001580YS02001583        0.09      0.09      0.16      0.01         0.01
  YS02001583YS02001586        0.11      0.11      0.28      0.01         0.01
  YS02001586YS02001590        0.29      0.29      0.34      0.01         0.01
  YS02001590YS02001593        0.34      0.34      0.36      0.36         0.01
  YS02001593YS02001596        0.35      0.35      0.42      0.01         0.01
  YS02001596YS02001600        0.45      0.45      0.52      0.01         0.01
  YS02001600YS02001601        0.57      0.57      0.82      0.01         0.01
  YS02001601YS02001602        0.71      0.71      0.86      0.53         0.01
  YS02001602YS02001605        0.67      0.67      0.71      1.70         0.01
  YS02001605YS02001607        0.63      0.67      0.63      0.77         0.63
  YS02001607YS02001610        0.29      0.29      0.31      0.01         0.01
  YS02001610YS02001613        0.28      0.28      0.31      0.01         0.01
  YS02001613YS02001616        0.25      0.25      0.28      0.01         0.01
  YS02001616YS02001619        0.24      0.24      0.25      0.01         0.01
  YS02001619YS02001622        0.23      0.24      0.23      0.36         0.23
  YS02001622YS02001625        0.23      0.23      0.39      0.01         0.01
  YS02001625YS02001629        0.17      0.17      0.39      0.01         0.01
  YS02001629YS02163301        0.38      0.38      0.39      0.23         0.19
  YS02001633YS02163601        0.40      0.40      0.42      0.28         0.27
  YS02001641YS02001644        0.31      0.34      0.31      0.92         0.31
  YS02001644YS02001647        0.01      0.01      0.31      0.01         0.01
  YS02001647YS02001649        0.01      0.01      0.10      0.01         0.01
  YS02001649YS02001757        0.10      0.10      0.16      0.09         0.01
  YS02001652YS02001649        0.01      0.01      0.10      0.01         0.01
  YS02001754YS02001757        0.01      0.01      0.16      0.01         0.01
  YS02001757CaochengTiaoxuchi        0.16      0.16      6.09      0.06         0.01
  YS02001759YS02001757        0.01      0.01      0.16      0.01         0.01
  YS02001770YS02001767        0.01      0.01      0.01      0.19         0.01
  YS02001783YS02001784        0.12      0.15      0.12      0.28         0.12
  YS02001784YS02001785        0.01      0.12      0.01      0.44         0.01
  YS02001786YS02001788        0.01      0.01      0.01      0.36         0.01
  YS02001790YS02001791        0.01      0.01      0.01      0.09         0.01
  YS02001793JiankangQianchi        0.01      0.01      7.70      0.01         0.01
  YS02001882YS02001884        0.03      0.03      0.08      0.01         0.01
  YS02001884YS02001887        0.13      0.13      0.14      0.01         0.01
  YS02001887YS02001890        0.16      0.16      0.17      0.01         0.01
  YS02001890YS02001895        0.01      0.01      0.19      0.01         0.01
  YS02001898YS02001901        0.01      0.01      0.12      0.01         0.01
  YS02001901YS02001904        0.11      0.11      0.12      0.01         0.01
  YS02001904YS02001907        0.11      0.11      0.34      0.01         0.01
  YS02001907YS02006553        0.44      0.44      0.49      0.01         0.01
  YS02001910YS02001907        0.19      0.19      0.33      0.01         0.01
  YS02001915YS02001910        0.05      0.05      0.19      0.01         0.01
  YS02001918YS02001915        0.01      0.01      0.05      0.01         0.01
  YS02006553YS02006556        0.26      0.26      0.34      0.01         0.01
  YS02006556YS02006558        0.30      0.30      0.35      0.01         0.01
  YS02006558YS02006561        0.01      0.25      0.01      0.41         0.01
  YS02006561YS02001783        0.01      0.01      0.15      0.01         0.01
  YS02163301YS02001633        0.39      0.39      0.42      0.01         0.01
  YS02163601YS02164001        0.35      0.35      0.42      0.14         0.01
  YS02164001YS02001641        0.34      0.35      0.34      0.45         0.34
  YSB1154YSB6556              0.34      0.34      0.44      0.01         0.01
  YSB1171HS02004479           0.26      0.26      0.44      0.01         0.01
  YSB1174YSB1171              0.38      0.38      0.63      0.01         0.01
  YSB6556YSB1171              0.34      0.34      0.77      0.01         0.01
  
  
  ***************
  Pumping Summary
  ***************
  
  ---------------------------------------------------------------------------------------------------------
                                                  Min       Avg       Max     Total     Power    % Time Off
                        Percent   Number of      Flow      Flow      Flow    Volume     Usage    Pump Curve
  Pump                 Utilized   Start-Ups       LPS       LPS       LPS  10^6 ltr     Kw-hr    Low   High
  ---------------------------------------------------------------------------------------------------------
  CC-R1                   13.66           5      0.00    629.57    683.00     2.485     45.72    0.0    7.6
  CC-R2                    5.30           4      0.00    542.44    683.00     0.840     15.38    0.0   19.6
  CC-S1                   95.83           4      0.00     20.33    200.00     0.412      2.39    0.0    0.0
  CC-S2                   96.93           4      0.00     62.69    200.00     0.950      5.54    0.0    0.0
  JK-R1                    8.37           9      0.00    691.42   1000.00     1.521     18.43    0.0    0.0
  JK-R2                    2.98           4      0.00    328.36   1000.00     0.264      2.63    0.0    0.0
  JK-S                    22.52          10      0.00     26.81    300.00     0.328      4.46    0.0    0.0
  XR-1                    97.91           2      0.00     95.00     95.00     2.679      9.62    0.0    0.0
  XR-2                    93.95           2      0.00     95.00     95.00     2.570      8.79    0.0    0.0
  XR-3                     0.00           1      0.00     95.00     95.00     0.000      0.00    0.0    0.0
  XR-4                     0.00           1      0.00     95.00     95.00     0.000      0.00    0.0    0.0
  

  Analysis begun on:  Sun Jun 25 21:04:02 2023
  Analysis ended on:  Sun Jun 25 21:04:14 2023
  Total elapsed time: 00:00:12