
  OWA STORM WATER MANAGEMENT MODEL - VERSION v5.1.14 (OWA 2022-07-31)
  --------------------------------------------------------------

  WARNING 04: minimum elevation drop used for Conduit WS02004404WS02004405
  WARNING 03: negative offset ignored for Link YS02001904YS02001907
  
  *********************************************************
  NOTE: The summary statistics displayed in this report are
  based on results found at every computational time step,  
  not just on results from each reporting time step.
  *********************************************************
  
  ****************
  Analysis Options
  ****************
  Flow Units ............... LPS
  Process Models:
    Rainfall/Runoff ........ YES
    RDII ................... NO
    Snowmelt ............... NO
    Groundwater ............ NO
    Flow Routing ........... YES
    Ponding Allowed ........ NO
    Water Quality .......... NO
  Infiltration Method ...... HORTON
  Flow Routing Method ...... DYNWAVE
  Surcharge Method ......... EXTRAN
  Starting Date ............ 08/28/2015 08:00:00
  Ending Date .............. 08/28/2015 16:00:00
  Antecedent Dry Days ...... 8.0
  Report Time Step ......... 00:01:00
  Wet Time Step ............ 00:01:00
  Dry Time Step ............ 00:01:00
  Routing Time Step ........ 30.00 sec
  Variable Time Step ....... YES
  Maximum Trials ........... 8
  Number of Threads ........ 2
  Head Tolerance ........... 0.001500 m
  
  
  **************************        Volume         Depth
  Runoff Quantity Continuity     hectare-m            mm
  **************************     ---------       -------
  Initial LID Storage ......         0.072         1.184
  Total Precipitation ......         2.950        48.704
  Evaporation Loss .........         0.000         0.000
  Infiltration Loss ........         0.198         3.263
  Surface Runoff ...........         2.208        36.451
  Final Storage ............         0.617        10.187
  Continuity Error (%) .....        -0.025
  
  
  **************************        Volume        Volume
  Flow Routing Continuity        hectare-m      10^6 ltr
  **************************     ---------     ---------
  Dry Weather Inflow .......         0.630         6.296
  Wet Weather Inflow .......         2.208        22.082
  Groundwater Inflow .......         0.000         0.000
  RDII Inflow ..............         0.000         0.000
  External Inflow ..........         0.105         1.045
  External Outflow .........         1.895        18.953
  Flooding Loss ............         0.814         8.144
  Evaporation Loss .........         0.000         0.000
  Exfiltration Loss ........         0.000         0.000
  Initial Stored Volume ....         0.303         3.031
  Final Stored Volume ......         0.539         5.392
  Continuity Error (%) .....        -0.105
  
  
  *************************
  Highest Continuity Errors
  *************************
  Node YS02001774 (6.64%)
  Node YS02001884 (4.94%)
  Node YS02001583 (-4.82%)
  Node HS02004842 (1.94%)
  Node HS02004817 (1.34%)
  
  
  ***************************
  Time-Step Critical Elements
  ***************************
  Link WS02006252WS02006251 (64.98%)
  Link WS02006280WS02006229 (17.05%)
  Link WS02006238WS02006235 (4.96%)
  Link YS02001791YS02001793 (3.39%)
  Link YS02006556YS02006558 (1.19%)
  
  
  ********************************
  Highest Flow Instability Indexes
  ********************************
  Link WS02006113WS02006111 (22)
  Link WS02006229WS02006228 (13)
  Link WS02006256WS02006235 (13)
  Link WS02006238WS02006235 (13)
  Link WS02004404WS02004405 (12)
  
  
  *************************
  Routing Time Step Summary
  *************************
  Minimum Time Step           :     0.01 sec
  Average Time Step           :     2.10 sec
  Maximum Time Step           :     6.46 sec
  Percent in Steady State     :    -0.00
  Average Iterations per Step :     2.91
  Percent Not Converging      :     9.14
  
  
  ***************************
  Subcatchment Runoff Summary
  ***************************
  
  ------------------------------------------------------------------------------------------------------------------------------
                            Total      Total      Total      Total     Imperv       Perv      Total       Total     Peak  Runoff
                           Precip      Runon       Evap      Infil     Runoff     Runoff     Runoff      Runoff   Runoff   Coeff
  Subcatchment                 mm         mm         mm         mm         mm         mm         mm    10^6 ltr      LPS
  ------------------------------------------------------------------------------------------------------------------------------
  sub0                      48.70       0.00       0.00       0.97      44.04       2.44      46.48        0.04    27.59   0.954
  sub1                      48.70       0.00       0.00       1.46      37.74       3.34      41.07        0.27   170.76   0.843
  sub10                     48.70       0.00       0.00       0.93      35.37       2.23      37.60        0.41   267.12   0.772
  sub11                     48.70       0.00       0.00       0.85      32.87       2.09      34.96        0.41   278.04   0.718
  sub12                     48.70       0.00       0.00       1.49      33.42       3.64      37.07        0.32   236.32   0.761
  sub14                     48.70       0.00       0.00       0.93      31.13       2.24      33.37        0.32   214.28   0.685
  sub15                     48.70       0.00       0.00       4.22      27.99       8.12      36.11        0.62   379.54   0.741
  sub16                     48.70       0.00       0.00       4.48      27.30       9.36      36.66        0.38   256.75   0.753
  sub17                     48.70       0.00       0.00       4.80      30.13       9.79      39.92        0.34   222.37   0.820
  sub2                      48.70       0.00       0.00       6.66      27.58      10.03      37.61        0.35   178.56   0.772
  sub22                     48.70       0.00       0.00       7.49      26.12      12.79      38.92        2.46  1397.90   0.799
  sub23                     48.70       0.00       0.00       5.63      26.90      10.63      37.53        1.79  1097.34   0.771
  sub3                      48.70       0.00       0.00       7.12      27.30       9.42      36.73        0.83   384.68   0.754
  sub4                      48.70       0.00       0.00       1.60      37.14       3.14      40.28        0.84   417.69   0.827
  sub5                      48.70       0.00       0.00       0.83      36.51       2.00      38.51        0.44   275.90   0.791
  sub60                     48.70       0.00       0.00       1.33      32.15       3.18      35.33        0.46   321.14   0.725
  sub61                     48.70       0.00       0.00       2.04      32.12       4.73      36.85        0.68   467.73   0.757
  sub62                     48.70       0.00       0.00       0.90      34.24       2.16      36.40        1.00   639.04   0.747
  sub63                     48.70       0.00       0.00       3.75      27.51       7.81      35.32        0.80   525.06   0.725
  sub64                     48.70       0.00       0.00       1.80      31.32       3.89      35.21        0.85   522.20   0.723
  sub65                     48.70       0.00       0.00       1.65      33.80       3.55      37.35        1.03   610.27   0.767
  sub66                     48.70       0.00       0.00       4.39      26.59       6.81      33.40        1.56   783.46   0.686
  sub67                     48.70       0.00       0.00       0.90      35.11       2.24      37.35        0.69   499.58   0.767
  sub68                     48.70       0.00       0.00       1.57      31.00       3.63      34.63        0.95   636.22   0.711
  sub69                     48.70       0.00       0.00       1.42      32.73       4.37      37.10        1.37   790.48   0.762
  sub7                      48.70       0.00       0.00       0.98      33.37       2.41      35.78        0.12    84.01   0.735
  sub70                     48.70       0.00       0.00       4.80      26.21       8.76      34.96        1.01   453.48   0.718
  sub71                     48.70       0.00       0.00       0.83      31.10       1.95      33.05        0.86   529.00   0.679
  sub72                     48.70       0.00       0.00       0.80      33.59       1.81      35.40        0.49   272.27   0.727
  sub8                      48.70       0.00       0.00       0.96      32.43       2.34      34.76        0.22   150.68   0.714
  sub9                      48.70       0.00       0.00       0.93      31.43       2.27      33.70        0.16   109.76   0.692
  

  ***********************
  LID Performance Summary
  ***********************

  --------------------------------------------------------------------------------------------------------------------
                                         Total      Evap     Infil   Surface    Drain    Initial     Final  Continuity
                                        Inflow      Loss      Loss   Outflow   Outflow   Storage   Storage       Error
  Subcatchment      LID Control             mm        mm        mm        mm        mm        mm        mm           %
  --------------------------------------------------------------------------------------------------------------------
  sub1              GreenRoof            48.70      0.00      0.00      0.00      0.00      7.05     55.78       -0.05
  sub10             GreenRoof            48.70      0.00      0.00      0.00      0.00      7.05     55.78       -0.05
  sub11             GreenRoof            48.70      0.00      0.00      0.00      0.00      7.05     55.78       -0.05
  sub12             GreenRoof            48.70      0.00      0.00      0.00      0.00      7.05     55.78       -0.05
  sub14             GreenRoof            48.70      0.00      0.00      0.00      0.00      7.05     55.78       -0.05
  sub15             GreenRoof            48.70      0.00      0.00      0.00      0.00      7.05     55.78       -0.05
  sub16             GreenRoof            48.70      0.00      0.00      0.00      0.00      7.05     55.78       -0.05
  sub17             GreenRoof            48.70      0.00      0.00      0.00      0.00      7.05     55.78       -0.05
  sub2              GreenRoof            48.70      0.00      0.00      0.00      0.00      7.05     55.78       -0.05
  sub22             GreenRoof            48.70      0.00      0.00      0.00      0.00      7.05     55.78       -0.05
  sub23             GreenRoof            48.70      0.00      0.00      0.00      0.00      7.05     55.78       -0.05
  sub3              GreenRoof            48.70      0.00      0.00      0.00      0.00      7.05     55.78       -0.05
  sub4              GreenRoof            48.70      0.00      0.00      0.00      0.00      7.05     55.78       -0.05
  sub5              GreenRoof            48.70      0.00      0.00      0.00      0.00      7.05     55.78       -0.05
  sub60             GreenRoof            48.70      0.00      0.00      0.00      0.00      7.05     55.78       -0.05
  sub61             GreenRoof            48.70      0.00      0.00      0.00      0.00      7.05     55.78       -0.05
  sub62             GreenRoof            48.70      0.00      0.00      0.00      0.00      7.05     55.78       -0.05
  sub63             GreenRoof            48.70      0.00      0.00      0.00      0.00      7.05     55.78       -0.05
  sub64             GreenRoof            48.70      0.00      0.00      0.00      0.00      7.05     55.78       -0.05
  sub65             GreenRoof            48.70      0.00      0.00      0.00      0.00      7.05     55.78       -0.05
  sub66             GreenRoof            48.70      0.00      0.00      0.00      0.00      7.05     55.78       -0.05
  sub67             GreenRoof            48.70      0.00      0.00      0.00      0.00      7.05     55.78       -0.05
  sub68             GreenRoof            48.70      0.00      0.00      0.00      0.00      7.05     55.78       -0.05
  sub69             GreenRoof            48.70      0.00      0.00      0.00      0.00      7.05     55.78       -0.05
  sub7              GreenRoof            48.70      0.00      0.00      0.00      0.00      7.05     55.78       -0.05
  sub70             GreenRoof            48.70      0.00      0.00      0.00      0.00      7.05     55.78       -0.05
  sub71             GreenRoof            48.70      0.00      0.00      0.00      0.00      7.05     55.78       -0.05
  sub72             GreenRoof            48.70      0.00      0.00      0.00      0.00      7.05     55.78       -0.05
  sub8              GreenRoof            48.70      0.00      0.00      0.00      0.00      7.05     55.78       -0.05
  sub9              GreenRoof            48.70      0.00      0.00      0.00      0.00      7.05     55.78       -0.05
  
  ******************
  Node Depth Summary
  ******************
  
  ---------------------------------------------------------------------------------
                                 Average  Maximum  Maximum  Time of Max    Reported
                                   Depth    Depth      HGL   Occurrence   Max Depth
  Node                 Type       Meters   Meters   Meters  days hr:min      Meters
  ---------------------------------------------------------------------------------
  HS02004478           JUNCTION     0.17     1.55    10.78     0  02:11        1.52
  HS02004479           JUNCTION     0.25     1.68    10.89     0  02:11        1.65
  HS02004480           JUNCTION     0.21     1.66    10.90     0  02:11        1.61
  HS02004770           JUNCTION     0.22     1.42    11.25     0  02:08        1.42
  HS02004777           JUNCTION     0.25     1.48    11.28     0  02:08        1.45
  HS02004785           JUNCTION     0.14     1.49    11.39     0  02:08        1.33
  HS02004788           JUNCTION     0.11     1.42    11.32     0  02:08        1.32
  HS02004792           JUNCTION     0.16     1.60    11.12     0  02:06        1.60
  HS02004799           JUNCTION     0.27     1.76    10.97     0  02:11        1.76
  HS02004802           JUNCTION     0.27     1.77    10.90     0  02:11        1.66
  HS02004807           JUNCTION     0.24     1.92    11.09     0  02:11        1.68
  HS02004817           JUNCTION     0.54     2.44    11.29     0  02:11        2.03
  HS02004824           JUNCTION     0.11     2.01    11.41     0  02:11        1.50
  HS02004830           JUNCTION     0.12     2.03    11.50     0  02:11        1.44
  HS02004837           JUNCTION     0.09     2.03    11.61     0  02:11        1.34
  HS02004842           JUNCTION     0.39     2.22    11.49     0  02:11        1.65
  HS02004848           JUNCTION     0.07     2.06    11.66     0  02:11        1.32
  HS02004852           JUNCTION     0.08     2.12    11.63     0  02:11        1.36
  HS02004856           JUNCTION     0.14     2.07    11.50     0  02:11        1.41
  HS02004862           JUNCTION     0.09     2.00    11.38     0  02:11        1.40
  HS02004870           JUNCTION     0.08     1.98    11.27     0  02:11        1.40
  HS02004876           JUNCTION     0.13     2.06    11.09     0  02:11        1.54
  HS02004881           JUNCTION     0.08     1.79    10.82     0  02:11        1.37
  HS02004901           JUNCTION     0.23     1.42    11.24     0  02:08        1.42
  WS02001211           JUNCTION     0.63     0.80     5.64     0  02:16        0.80
  WS02001212           JUNCTION     0.37     0.57     5.63     0  02:17        0.57
  WS02001213           JUNCTION     0.58     0.86     5.62     0  02:17        0.86
  WS02003059           JUNCTION     0.64     0.93     5.62     0  02:17        0.93
  WS02003060           JUNCTION     0.36     0.68     5.61     0  02:16        0.68
  WS02003066           JUNCTION     0.20     0.45     6.00     0  02:14        0.45
  WS02003067           JUNCTION     0.50     0.88     6.20     0  02:13        0.88
  WS02003069           JUNCTION     0.40     0.77     5.35     0  02:16        0.77
  WS02003072           JUNCTION     0.46     0.80     5.18     0  02:17        0.80
  WS02003073           JUNCTION     0.27     0.51     4.57     0  02:17        0.51
  WS02004138           JUNCTION     0.13     0.14     7.39     0  00:32        0.14
  WS02004139           JUNCTION     0.57     0.74     5.65     0  02:17        0.74
  WS02004401           JUNCTION     0.68     1.79     7.79     0  02:13        1.79
  WS02004402           JUNCTION     0.70     1.74     7.70     0  02:13        1.73
  WS02004403           JUNCTION     0.71     1.67     7.60     0  02:14        1.66
  WS02004404           JUNCTION     0.78     1.68     7.53     0  02:14        1.68
  WS02004405           JUNCTION     0.77     1.64     7.49     0  02:13        1.62
  WS02004406           JUNCTION     0.77     1.53     7.36     0  02:13        1.52
  WS02004407           JUNCTION     0.22     0.88     7.20     0  02:13        0.88
  WS02004409           JUNCTION     0.45     1.36     7.13     0  02:13        1.35
  WS02004410           JUNCTION     0.46     1.27     6.99     0  02:13        1.26
  WS02004411           JUNCTION     0.48     1.19     6.87     0  02:14        1.18
  WS02004412           JUNCTION     0.49     1.09     6.73     0  02:13        1.09
  WS02004413           JUNCTION     0.63     1.14     6.61     0  02:13        1.14
  WS02006109           JUNCTION     0.84     2.64     9.26     0  01:59        2.64
  WS02006110           JUNCTION     0.80     2.76     9.34     0  01:59        2.76
  WS02006111           JUNCTION     0.34     1.80     8.51     0  01:59        1.66
  WS02006112           JUNCTION     0.87     2.29     8.17     0  02:12        2.29
  WS02006113           JUNCTION     0.40     2.73     9.62     0  01:59        2.73
  WS02006115           JUNCTION     0.59     1.88     8.02     0  02:12        1.88
  WS02006116           JUNCTION     0.66     1.88     7.92     0  02:13        1.87
  WS02006228           JUNCTION     0.87     3.02     9.67     0  02:11        3.00
  WS02006229           JUNCTION     0.86     3.21     9.90     0  02:11        3.18
  WS02006230           JUNCTION     0.80     2.65     9.39     0  02:05        2.65
  WS02006231           JUNCTION     0.55     2.22     9.34     0  02:23        2.22
  WS02006232           JUNCTION     0.64     2.18     9.22     0  02:05        2.18
  WS02006234           JUNCTION     0.52     1.96     9.12     0  02:05        1.96
  WS02006235           JUNCTION     0.54     2.00     9.16     0  03:05        1.93
  WS02006238           JUNCTION     0.56     2.06     9.20     0  03:05        1.93
  WS02006239           JUNCTION     0.50     1.95     9.16     0  03:05        1.78
  WS02006240           JUNCTION     0.46     1.77     9.07     0  03:05        1.63
  WS02006242           JUNCTION     0.49     1.55     8.82     0  02:03        1.55
  WS02006243           JUNCTION     0.40     1.48     8.90     0  01:57        1.37
  WS02006245           JUNCTION     0.39     1.56     9.04     0  01:57        1.27
  WS02006247           JUNCTION     0.40     1.26     8.76     0  03:05        1.23
  WS02006248           JUNCTION     0.35     1.10     8.69     0  01:57        1.10
  WS02006249           JUNCTION     0.37     1.09     8.69     0  01:57        1.09
  WS02006251           JUNCTION     0.42     2.21     9.88     0  02:05        2.08
  WS02006252           JUNCTION     0.31     1.50     9.74     0  00:00        1.50
  WS02006253           JUNCTION     0.48     3.00    10.64     0  02:11        2.68
  WS02006256           JUNCTION     0.84     2.35     9.28     0  00:00        2.35
  WS02006280           JUNCTION     0.23     1.73    10.00     0  02:11        1.71
  WS02006284           JUNCTION     0.50     1.93    10.33     0  02:11        1.89
  WS02006287           JUNCTION     0.23     1.70    10.66     0  02:11        1.67
  WSF200               JUNCTION     0.19     0.51     5.75     0  02:14        0.51
  YS02001580           JUNCTION     0.05     1.05     9.59     0  02:08        0.78
  YS02001583           JUNCTION     0.08     1.01     9.50     0  02:08        0.82
  YS02001586           JUNCTION     0.13     1.13     9.30     0  02:08        1.13
  YS02001590           JUNCTION     0.22     1.40     9.26     0  02:08        1.40
  YS02001593           JUNCTION     0.15     1.32     9.19     0  02:08        1.29
  YS02001596           JUNCTION     0.21     1.68     9.10     0  02:08        1.67
  YS02001600           JUNCTION     0.26     1.87     9.00     0  02:08        1.86
  YS02001601           JUNCTION     0.45     2.06     8.90     0  02:08        2.06
  YS02001602           JUNCTION     0.37     1.87     8.77     0  02:08        1.87
  YS02001605           JUNCTION     0.34     1.78     8.68     0  02:23        1.78
  YS02001607           JUNCTION     0.35     1.65     8.49     0  02:23        1.64
  YS02001610           JUNCTION     0.39     1.68     8.48     0  02:08        1.68
  YS02001613           JUNCTION     0.35     1.65     8.50     0  02:10        1.65
  YS02001616           JUNCTION     0.28     1.59     8.50     0  02:11        1.59
  YS02001619           JUNCTION     0.26     1.58     8.50     0  02:13        1.58
  YS02001622           JUNCTION     0.25     1.56     8.46     0  02:12        1.55
  YS02001625           JUNCTION     0.51     1.78     8.38     0  02:10        1.78
  YS02001629           JUNCTION     0.37     1.85     8.40     0  02:11        1.85
  YS02001633           JUNCTION     0.45     2.01     8.47     0  02:12        1.99
  YS02001641           JUNCTION     0.44     1.95     8.39     0  02:12        1.94
  YS02001644           JUNCTION     0.44     1.92     8.35     0  02:12        1.92
  YS02001647           JUNCTION     0.23     1.74     8.35     0  02:12        1.70
  YS02001649           JUNCTION     0.37     1.91     8.30     0  02:12        1.88
  YS02001652           JUNCTION     0.19     1.79     8.39     0  02:12        1.71
  YS02001655           JUNCTION     0.11     1.76     8.61     0  02:12        1.48
  YS02001658           JUNCTION     0.08     1.72     8.86     0  02:12        1.19
  YS02001661           JUNCTION     0.12     1.10     8.50     0  02:13        0.97
  YS02001664           JUNCTION     0.04     0.52     8.45     0  02:13        0.38
  YS02001745           JUNCTION     0.04     0.72     8.23     0  02:12        0.64
  YS02001748           JUNCTION     0.07     1.65     8.73     0  02:12        1.12
  YS02001751           JUNCTION     0.09     1.63     8.51     0  02:12        1.29
  YS02001754           JUNCTION     0.17     1.72     8.33     0  02:12        1.56
  YS02001757           JUNCTION     0.45     1.98     8.24     0  02:12        1.91
  YS02001759           JUNCTION     0.37     1.94     8.30     0  02:13        1.94
  YS02001762           JUNCTION     0.34     1.97     8.37     0  02:13        1.97
  YS02001765           JUNCTION     0.30     1.96     8.41     0  02:13        1.96
  YS02001767           JUNCTION     0.28     1.95     8.44     0  02:13        1.95
  YS02001770           JUNCTION     0.28     1.95     8.44     0  02:13        1.95
  YS02001774           JUNCTION     0.34     2.01     8.43     0  02:13        2.01
  YS02001779           JUNCTION     0.12     1.68     8.37     0  02:11        1.68
  YS02001783           JUNCTION     0.19     1.53     7.67     0  02:12        1.21
  YS02001784           JUNCTION     0.21     1.34     7.41     0  02:25        1.10
  YS02001786           JUNCTION     0.19     1.41     7.44     0  02:25        0.86
  YS02001788           JUNCTION     0.14     1.30     7.28     0  02:25        0.76
  YS02001790           JUNCTION     0.19     1.47     7.11     0  02:33        1.05
  YS02001791           JUNCTION     0.16     1.67     7.14     0  02:24        1.17
  YS02001793           JUNCTION     0.20     1.80     6.63     0  02:24        1.78
  YS02001882           JUNCTION     0.23     1.68     8.39     0  02:12        1.62
  YS02001884           JUNCTION     0.32     1.77     8.38     0  02:12        1.73
  YS02001887           JUNCTION     0.40     1.82     8.36     0  02:12        1.82
  YS02001890           JUNCTION     0.43     1.81     8.32     0  02:12        1.81
  YS02001895           JUNCTION     0.20     1.59     8.34     0  02:12        1.59
  YS02001898           JUNCTION     0.21     1.59     8.32     0  02:12        1.59
  YS02001901           JUNCTION     0.32     1.68     8.29     0  02:12        1.67
  YS02001904           JUNCTION     0.30     1.64     8.27     0  02:12        1.64
  YS02001907           JUNCTION     0.61     1.96     8.25     0  02:12        1.96
  YS02001910           JUNCTION     0.41     1.96     8.47     0  02:12        1.95
  YS02001915           JUNCTION     0.23     1.91     8.62     0  02:12        1.90
  YS02001918           JUNCTION     0.11     1.81     8.88     0  02:11        1.81
  YS02001920           JUNCTION     0.18     2.14     9.15     0  02:12        1.75
  YS02001923           JUNCTION     0.07     2.03     9.29     0  02:12        1.43
  YS02001926           JUNCTION     0.12     1.90     9.35     0  02:12        1.24
  YS02001929           JUNCTION     0.06     1.78     9.47     0  02:12        1.10
  YS02006553           JUNCTION     0.62     2.00     8.28     0  02:12        1.97
  YS02006556           JUNCTION     0.59     2.02     8.33     0  02:12        1.92
  YS02006558           JUNCTION     0.63     2.12     8.39     0  02:12        1.97
  YS02006561           JUNCTION     0.11     1.19     7.85     0  02:12        0.87
  YS02163301           JUNCTION     0.40     1.92     8.43     0  02:12        1.90
  YS02163601           JUNCTION     0.49     2.04     8.43     0  02:12        2.02
  YS02164001           JUNCTION     0.42     1.96     8.42     0  02:12        1.94
  YSB1154              JUNCTION     0.38     1.88    10.94     0  02:11        1.86
  YSB1171              JUNCTION     0.53     1.95    10.85     0  02:11        1.95
  YSB1174              JUNCTION     0.33     1.79    10.90     0  02:12        1.79
  YSB6556              JUNCTION     0.28     1.73    10.90     0  02:11        1.71
  CC-1                 OUTFALL      0.00     0.00     0.00     0  00:00        0.00
  CC-2                 OUTFALL      0.00     0.00     0.00     0  00:00        0.00
  JK-1                 OUTFALL      0.00     0.00     0.00     0  00:00        0.00
  JK-2                 OUTFALL      0.00     0.00     0.00     0  00:00        0.00
  WSC                  OUTFALL      0.27     0.51     1.18     0  02:18        0.51
  CC-storage           STORAGE      1.09     1.59     7.09     0  02:30        1.59
  JK-storage           STORAGE      3.23     5.80     6.60     0  02:35        5.80
  XR-storage           STORAGE      7.94     9.26     7.26     0  08:00        9.26
  
  
  *******************
  Node Inflow Summary
  *******************
  
  -------------------------------------------------------------------------------------------------
                                  Maximum  Maximum                  Lateral       Total        Flow
                                  Lateral    Total  Time of Max      Inflow      Inflow     Balance
                                   Inflow   Inflow   Occurrence      Volume      Volume       Error
  Node                 Type           LPS      LPS  days hr:min    10^6 ltr    10^6 ltr     Percent
  -------------------------------------------------------------------------------------------------
  HS02004478           JUNCTION      0.00  2246.65     0  02:13           0        6.75      -0.012
  HS02004479           JUNCTION      0.00   448.22     0  02:11           0       0.682       0.111
  HS02004480           JUNCTION      0.00  2111.77     0  02:09           0        5.28       0.046
  HS02004770           JUNCTION   1097.34  1097.34     0  02:14        1.79           2       0.146
  HS02004777           JUNCTION      0.03   757.15     0  02:08    0.000864        1.58       0.324
  HS02004785           JUNCTION      0.15   783.87     0  02:08     0.00432        1.58       0.032
  HS02004788           JUNCTION    381.21   847.86     0  02:08       0.669        2.25      -0.008
  HS02004792           JUNCTION   1398.18  2119.24     0  02:14        2.47        4.71       0.013
  HS02004799           JUNCTION    214.28  1772.46     0  02:09       0.318        4.61       0.061
  HS02004802           JUNCTION      0.00   735.28     0  02:14           0        1.51       0.262
  HS02004807           JUNCTION    278.04   734.33     0  02:14       0.406        1.55       0.262
  HS02004817           JUNCTION      0.60   463.94     0  02:14      0.0173         1.2       1.363
  HS02004824           JUNCTION    417.74   645.54     0  02:09       0.842        1.37       0.037
  HS02004830           JUNCTION      0.15   653.74     0  02:09     0.00432       0.718       0.189
  HS02004837           JUNCTION    273.47   832.02     0  02:09       0.598       0.987       0.087
  HS02004842           JUNCTION      0.00   830.96     0  02:09           0       0.664       1.976
  HS02004848           JUNCTION    384.68  1093.72     0  02:11       0.827        1.33       0.000
  HS02004852           JUNCTION      0.00  1076.93     0  02:11           0        1.18      -0.009
  HS02004856           JUNCTION    109.76  1176.32     0  02:11       0.162        1.35       0.030
  HS02004862           JUNCTION    178.76  1213.18     0  02:11       0.356         1.7      -0.009
  HS02004870           JUNCTION    150.68  1328.98     0  02:11       0.222        1.92       0.015
  HS02004876           JUNCTION    170.76  1334.05     0  02:11       0.273        2.19       0.034
  HS02004881           JUNCTION     84.01  1413.87     0  02:11       0.121        2.31       0.009
  HS02004901           JUNCTION    256.75   484.31     0  02:15       0.384       0.555       0.314
  WS02001211           JUNCTION      7.35   208.81     0  02:05       0.212        5.44       0.611
  WS02001212           JUNCTION      0.00   212.38     0  03:11           0        5.41       0.290
  WS02001213           JUNCTION      0.00   217.29     0  03:12           0        5.39       0.332
  WS02003059           JUNCTION      0.00   224.09     0  03:12           0        5.38       0.595
  WS02003060           JUNCTION     16.53  1477.20     0  02:15       0.476        12.6       0.117
  WS02003066           JUNCTION      0.00  1275.44     0  02:14           0        6.76       0.022
  WS02003067           JUNCTION      0.00  1275.46     0  02:14           0        6.77       0.066
  WS02003069           JUNCTION      0.32  1477.66     0  02:16     0.00922        12.6       0.123
  WS02003072           JUNCTION      0.00  1477.53     0  02:16           0        12.6       0.167
  WS02003073           JUNCTION      1.82  1479.45     0  02:17      0.0524        12.6       0.173
  WS02004138           JUNCTION      0.00   380.00     0  00:00           0        5.25       0.054
  WS02004139           JUNCTION      0.32   190.32     0  00:32     0.00924        5.26       0.509
  WS02004401           JUNCTION      0.00  1275.44     0  02:13           0        6.87       0.153
  WS02004402           JUNCTION      0.00  1276.20     0  02:13           0        6.86       0.156
  WS02004403           JUNCTION      0.00  1276.09     0  02:13           0        6.85       0.151
  WS02004404           JUNCTION      0.16  1276.15     0  02:13     0.00467        6.85       0.126
  WS02004405           JUNCTION      0.04  1276.96     0  02:13      0.0011        6.84       0.187
  WS02004406           JUNCTION      0.00  1276.40     0  02:13           0        6.83       0.311
  WS02004407           JUNCTION      0.00  1276.13     0  02:13           0         6.8       0.023
  WS02004409           JUNCTION      0.00  1275.30     0  02:14           0         6.8       0.045
  WS02004410           JUNCTION      0.00  1275.61     0  02:14           0         6.8       0.070
  WS02004411           JUNCTION      0.00  1275.78     0  02:14           0        6.79       0.092
  WS02004412           JUNCTION      0.00  1275.52     0  02:14           0        6.79       0.119
  WS02004413           JUNCTION      0.00  1275.65     0  02:14           0        6.78       0.202
  WS02006109           JUNCTION      1.23  1259.97     0  02:13      0.0354        6.69       0.159
  WS02006110           JUNCTION      0.00  1119.85     0  02:24           0        6.57       0.115
  WS02006111           JUNCTION      0.00  1119.34     0  02:24           0        6.56       0.010
  WS02006112           JUNCTION    222.37  1275.32     0  02:13       0.343         6.9       0.261
  WS02006113           JUNCTION      0.00  1119.73     0  02:24           0        6.56       0.028
  WS02006115           JUNCTION      0.00  1275.19     0  02:13           0        6.89       0.102
  WS02006116           JUNCTION      0.00  1275.72     0  02:13           0        6.88       0.092
  WS02006228           JUNCTION      0.00  1259.14     0  02:13           0        6.66       0.083
  WS02006229           JUNCTION      0.00  2247.70     0  02:13           0        8.24       0.106
  WS02006230           JUNCTION     10.28   997.40     0  02:13       0.296        3.11       0.265
  WS02006231           JUNCTION      0.00   453.32     0  02:08           0        2.25      -0.261
  WS02006232           JUNCTION      0.00   453.51     0  02:25           0        2.25       0.423
  WS02006234           JUNCTION      0.00   453.13     0  02:11           0        2.23      -0.455
  WS02006235           JUNCTION      0.00   423.04     0  02:23           0        2.29       0.525
  WS02006238           JUNCTION      0.00   417.79     0  02:23           0        2.02      -0.175
  WS02006239           JUNCTION      0.00   415.16     0  02:31           0        1.99      -0.088
  WS02006240           JUNCTION      0.00   414.93     0  02:23           0        1.96       0.020
  WS02006242           JUNCTION      0.00   415.26     0  02:23           0        1.95       0.020
  WS02006243           JUNCTION      0.00   385.85     0  03:15           0        1.67       0.001
  WS02006245           JUNCTION      0.00   385.90     0  03:15           0        1.67       0.434
  WS02006247           JUNCTION      0.00   385.95     0  03:15           0        1.67       0.014
  WS02006248           JUNCTION      0.00   390.96     0  00:04           0        1.87      -0.014
  WS02006249           JUNCTION      0.00  1338.98     0  02:11           0        4.05       0.141
  WS02006251           JUNCTION      0.08  1446.69     0  02:11     0.00222        4.07      -0.007
  WS02006252           JUNCTION      0.00   400.00     0  00:00           0        1.81      -0.051
  WS02006253           JUNCTION     27.59  1443.46     0  02:11      0.0377        2.37       0.012
  WS02006256           JUNCTION      0.00   300.00     0  00:00           0       0.905      -0.950
  WS02006280           JUNCTION      0.00  2246.01     0  02:13           0        6.73       0.010
  WS02006284           JUNCTION      0.10  2245.42     0  02:13     0.00275        6.73       0.002
  WS02006287           JUNCTION      0.00  2246.81     0  02:14           0        6.73       0.013
  WSF200               JUNCTION      0.00  1275.43     0  02:14           0        6.76       0.012
  YS02001580           JUNCTION      0.00   116.29     0  02:08           0     0.00401      -4.648
  YS02001583           JUNCTION      0.00   168.87     0  02:08           0      0.0149      -4.597
  YS02001586           JUNCTION    453.48   453.48     0  02:15        1.01        1.02       0.133
  YS02001590           JUNCTION      0.00   317.89     0  02:21           0       0.942      -0.031
  YS02001593           JUNCTION      0.00   318.01     0  02:16           0       0.942       0.013
  YS02001596           JUNCTION      0.00   317.97     0  02:13           0       0.942       0.008
  YS02001600           JUNCTION      0.00   317.98     0  02:13           0       0.942       0.006
  YS02001601           JUNCTION    790.48  1107.72     0  02:14        1.37        2.32       0.031
  YS02001602           JUNCTION      0.00   516.45     0  02:08           0        1.74       0.019
  YS02001605           JUNCTION      0.00   515.50     0  02:08           0        1.68       0.012
  YS02001607           JUNCTION      0.00   514.78     0  02:08           0        1.68       0.113
  YS02001610           JUNCTION      0.00   515.07     0  02:07           0        1.68       0.136
  YS02001613           JUNCTION      0.00   515.58     0  02:07           0        1.52       0.114
  YS02001616           JUNCTION      0.00   517.45     0  02:08           0        1.52       0.032
  YS02001619           JUNCTION    783.46   927.50     0  02:10        1.56        3.07       0.001
  YS02001622           JUNCTION      0.00   927.81     0  02:10           0        3.07       0.002
  YS02001625           JUNCTION      0.00   927.87     0  02:08           0        3.07       0.293
  YS02001629           JUNCTION      0.00   928.99     0  02:08           0        2.71       0.046
  YS02001633           JUNCTION    610.47  1365.74     0  02:10        1.03        3.73       0.139
  YS02001641           JUNCTION      0.00  1362.44     0  02:10           0        3.73       0.109
  YS02001644           JUNCTION    522.23  1747.03     0  02:10       0.847        4.57       0.107
  YS02001647           JUNCTION      0.00  1748.90     0  02:10           0        4.54       0.027
  YS02001649           JUNCTION      0.00  1962.43     0  02:10           0        5.34       0.165
  YS02001652           JUNCTION      0.00   647.42     0  02:14           0        0.81      -0.033
  YS02001655           JUNCTION      0.15   646.15     0  02:14     0.00443       0.808       0.052
  YS02001658           JUNCTION      0.00   645.18     0  02:12           0       0.802      -0.010
  YS02001661           JUNCTION      0.00   771.59     0  02:14           0       0.802      -0.004
  YS02001664           JUNCTION    525.06   525.06     0  02:13       0.802       0.802      -0.010
  YS02001745           JUNCTION    321.14   402.37     0  02:12       0.464       0.465       0.282
  YS02001748           JUNCTION      0.04   564.09     0  02:12      0.0013       0.467      -0.437
  YS02001751           JUNCTION      0.01   377.60     0  02:13    0.000317       0.478       0.169
  YS02001754           JUNCTION      0.26   377.57     0  02:13     0.00749       0.497      -0.121
  YS02001757           JUNCTION      0.00  3065.06     0  02:13           0         7.5       0.524
  YS02001759           JUNCTION    467.77  1110.37     0  02:14       0.677         1.7       0.378
  YS02001762           JUNCTION      0.00   648.05     0  02:14           0        1.02       0.482
  YS02001765           JUNCTION      0.00   646.70     0  02:14           0        1.02       0.461
  YS02001767           JUNCTION      0.54   645.83     0  02:14      0.0154        1.02       0.475
  YS02001770           JUNCTION    639.19   642.15     0  02:14           1        1.05       0.328
  YS02001774           JUNCTION      0.00   412.36     0  02:11           0      0.0712       7.117
  YS02001779           JUNCTION      0.01   419.43     0  02:11    0.000144      0.0216      -1.829
  YS02001783           JUNCTION      0.00  1151.75     0  02:13           0        2.82       0.008
  YS02001784           JUNCTION      1.06  1152.79     0  02:13      0.0305        2.86       0.018
  YS02001786           JUNCTION      0.06  1152.66     0  02:13     0.00162        2.86       0.019
  YS02001788           JUNCTION      0.07  1157.36     0  02:12     0.00204        2.86       0.008
  YS02001790           JUNCTION      0.15  1165.24     0  02:12     0.00446        2.86       0.002
  YS02001791           JUNCTION      0.00  1274.25     0  02:14           0        2.86      -0.034
  YS02001793           JUNCTION      0.00  1231.83     0  02:13           0        2.86      -0.030
  YS02001882           JUNCTION      0.00    55.72     0  02:10           0      0.0123       4.233
  YS02001884           JUNCTION      0.00    79.64     0  02:10           0      0.0481       5.193
  YS02001887           JUNCTION    500.03   500.36     0  02:13       0.708       0.741       0.590
  YS02001890           JUNCTION      0.00   501.33     0  02:13           0       0.701       0.720
  YS02001895           JUNCTION      0.00   492.66     0  02:13           0       0.694       0.190
  YS02001898           JUNCTION      0.00   493.76     0  02:13           0       0.693       0.041
  YS02001901           JUNCTION      0.00   493.79     0  02:13           0       0.695       0.478
  YS02001904           JUNCTION      0.00   493.75     0  02:13           0       0.699       0.404
  YS02001907           JUNCTION      0.00  1473.54     0  02:13           0        2.12       0.851
  YS02001910           JUNCTION      0.00   980.94     0  02:13           0        1.43       0.499
  YS02001915           JUNCTION    529.02   979.81     0  02:13       0.865        1.47       0.114
  YS02001918           JUNCTION      0.00   453.34     0  02:13           0       0.637      -0.023
  YS02001920           JUNCTION      2.87   452.32     0  02:13      0.0827        0.62       0.120
  YS02001923           JUNCTION      0.04   409.44     0  02:12     0.00109       0.522      -0.146
  YS02001926           JUNCTION      0.05   600.62     0  02:12      0.0015       0.502       0.023
  YS02001929           JUNCTION    272.27   463.38     0  02:12       0.487       0.489      -0.028
  YS02006553           JUNCTION      0.00   801.00     0  02:23           0        1.89       0.630
  YS02006556           JUNCTION      0.00   801.99     0  02:23           0         1.9       0.427
  YS02006558           JUNCTION    637.10  1170.32     0  02:12       0.978        2.85       0.124
  YS02006561           JUNCTION      0.00  1169.31     0  02:12           0        2.82      -0.005
  YS02163301           JUNCTION      0.00   926.65     0  02:10           0         2.7       0.105
  YS02163601           JUNCTION      0.11  1365.49     0  02:10     0.00317        3.73       0.178
  YS02164001           JUNCTION      0.00  1364.12     0  02:10           0        3.72       0.095
  YSB1154              JUNCTION    275.90   275.90     0  02:14       0.436       0.437       0.336
  YSB1171              JUNCTION      0.00   512.08     0  02:13           0       0.768       0.836
  YSB1174              JUNCTION    236.32   236.32     0  02:13       0.324       0.325       0.397
  YSB6556              JUNCTION      0.00   275.92     0  02:13           0       0.438       0.271
  CC-1                 OUTFALL       0.00   683.00     0  00:00           0        2.73       0.000
  CC-2                 OUTFALL       0.00   683.00     0  00:00           0        1.79       0.000
  JK-1                 OUTFALL       0.00  1000.00     0  00:00           0        1.06       0.000
  JK-2                 OUTFALL       0.00  1000.00     0  00:00           0       0.796       0.000
  WSC                  OUTFALL       0.00  1479.78     0  02:18           0        12.6       0.000
  CC-storage           STORAGE       0.00  3066.38     0  02:13           0        9.66       0.137
  JK-storage           STORAGE       0.00  1229.40     0  02:17           0        3.01       0.286
  XR-storage           STORAGE     200.00   200.00     0  00:00        5.76        6.36       0.001
  
  
  **********************
  Node Surcharge Summary
  **********************
  
  Surcharging occurs when water rises above the top of the highest conduit.
  ---------------------------------------------------------------------
                                               Max. Height   Min. Depth
                                   Hours       Above Crown    Below Rim
  Node                 Type      Surcharged         Meters       Meters
  ---------------------------------------------------------------------
  HS02004478           JUNCTION        0.30          0.630        0.310
  HS02004479           JUNCTION        0.42          0.884        0.166
  HS02004480           JUNCTION        0.45          0.949        0.151
  HS02004770           JUNCTION        0.37          0.720        0.000
  HS02004777           JUNCTION        0.38          0.780        0.000
  HS02004785           JUNCTION        0.33          0.790        0.000
  HS02004788           JUNCTION        0.32          0.720        0.000
  HS02004792           JUNCTION        0.43          0.900        0.000
  HS02004799           JUNCTION        0.54          1.060        0.000
  HS02004802           JUNCTION        0.46          1.063        0.147
  HS02004807           JUNCTION        0.44          1.220        0.000
  HS02004817           JUNCTION        0.94          1.740        0.000
  HS02004824           JUNCTION        0.32          1.310        0.000
  HS02004830           JUNCTION        0.29          1.330        0.000
  HS02004837           JUNCTION        0.26          1.327        0.013
  HS02004842           JUNCTION        0.38          1.520        0.000
  HS02004848           JUNCTION        0.23          1.361        0.009
  HS02004852           JUNCTION        0.24          1.420        0.000
  HS02004856           JUNCTION        0.23          1.300        0.000
  HS02004862           JUNCTION        0.26          1.300        0.000
  HS02004870           JUNCTION        0.27          1.279        0.121
  HS02004876           JUNCTION        0.33          1.359        0.201
  HS02004881           JUNCTION        0.30          1.087        0.363
  HS02004901           JUNCTION        0.38          0.720        0.000
  WS02004401           JUNCTION        1.20          0.794        0.866
  WS02004402           JUNCTION        1.22          0.739        1.001
  WS02004403           JUNCTION        1.22          0.671        1.359
  WS02004404           JUNCTION        1.39          0.682        2.098
  WS02004405           JUNCTION        1.38          0.637        2.163
  WS02004406           JUNCTION        1.36          0.528        1.922
  WS02004409           JUNCTION        0.75          0.359        2.001
  WS02004410           JUNCTION        0.72          0.274        2.266
  WS02004411           JUNCTION        0.65          0.186        2.344
  WS02004412           JUNCTION        0.56          0.091        2.219
  WS02004413           JUNCTION        1.04          0.137        2.063
  WS02006109           JUNCTION        1.67          1.820        0.000
  WS02006110           JUNCTION        1.47          1.850        0.000
  WS02006111           JUNCTION        0.96          0.992        0.878
  WS02006112           JUNCTION        1.55          1.291        0.389
  WS02006113           JUNCTION        0.99          1.930        0.000
  WS02006115           JUNCTION        1.15          0.868        1.382
  WS02006116           JUNCTION        1.16          0.816        1.474
  WS02006228           JUNCTION        1.66          2.188        0.012
  WS02006229           JUNCTION        0.70          1.028        0.042
  WS02006230           JUNCTION        1.37          1.570        0.000
  WS02006231           JUNCTION        1.38          1.509        0.021
  WS02006232           JUNCTION        1.51          1.480        0.000
  WS02006234           JUNCTION        1.39          1.240        0.000
  WS02006235           JUNCTION        1.42          1.290        0.000
  WS02006238           JUNCTION        1.44          1.340        0.090
  WS02006239           JUNCTION        1.38          1.211        0.079
  WS02006240           JUNCTION        1.37          1.063        0.327
  WS02006242           JUNCTION        1.40          0.820        0.000
  WS02006243           JUNCTION        1.33          0.770        0.000
  WS02006245           JUNCTION        1.32          0.850        0.000
  WS02006247           JUNCTION        1.32          0.550        0.210
  WS02006248           JUNCTION        1.28          0.380        0.000
  WS02006249           JUNCTION        1.30          0.390        0.000
  WS02006251           JUNCTION        1.15          1.180        0.000
  WS02006252           JUNCTION        1.29          1.100        0.000
  WS02006253           JUNCTION        1.17          1.956        0.524
  WS02006256           JUNCTION        7.95          2.050        0.000
  WS02006280           JUNCTION        0.55          0.678        0.102
  WS02006284           JUNCTION        0.48          0.647        0.153
  WS02006287           JUNCTION        0.39          0.705        0.185
  YS02001580           JUNCTION        0.34          0.450        0.000
  YS02001583           JUNCTION        0.34          0.366        0.134
  YS02001586           JUNCTION        0.45          0.510        0.000
  YS02001590           JUNCTION        0.52          0.750        0.000
  YS02001593           JUNCTION        0.51          0.703        0.137
  YS02001596           JUNCTION        0.61          0.954        0.116
  YS02001600           JUNCTION        0.74          1.190        0.000
  YS02001601           JUNCTION        1.07          1.440        0.000
  YS02001602           JUNCTION        0.95          1.270        0.000
  YS02001605           JUNCTION        0.90          1.180        0.000
  YS02001607           JUNCTION        0.50          0.645        0.035
  YS02001610           JUNCTION        0.52          0.680        0.000
  YS02001613           JUNCTION        0.49          0.655        0.045
  YS02001616           JUNCTION        0.45          0.590        0.020
  YS02001619           JUNCTION        0.44          0.575        0.035
  YS02001622           JUNCTION        0.44          0.556        0.064
  YS02001625           JUNCTION        0.59          0.780        0.000
  YS02001629           JUNCTION        0.40          0.470        0.000
  YS02001633           JUNCTION        0.62          0.992        0.068
  YS02001641           JUNCTION        0.56          0.952        0.148
  YS02001644           JUNCTION        0.53          0.920        0.000
  YS02001647           JUNCTION        0.36          0.742        0.158
  YS02001649           JUNCTION        0.46          0.914        0.136
  YS02001652           JUNCTION        0.30          0.763        0.367
  YS02001655           JUNCTION        0.19          0.763        0.437
  YS02001658           JUNCTION        0.06          0.717        0.583
  YS02001661           JUNCTION        0.01          0.027        1.363
  YS02001748           JUNCTION        0.01          0.568        0.622
  YS02001751           JUNCTION        0.12          0.633        0.567
  YS02001754           JUNCTION        0.23          0.670        0.480
  YS02001757           JUNCTION        0.51          0.977        0.233
  YS02001759           JUNCTION        0.42          0.936        0.274
  YS02001762           JUNCTION        0.40          0.967        0.183
  YS02001765           JUNCTION        0.36          0.959        0.141
  YS02001767           JUNCTION        0.34          0.949        0.081
  YS02001770           JUNCTION        0.31          0.920        0.000
  YS02001774           JUNCTION        0.39          1.009        0.041
  YS02001779           JUNCTION        0.22          0.680        0.000
  YS02001783           JUNCTION        0.31          0.728        0.872
  YS02001784           JUNCTION        0.29          0.539        0.951
  YS02001786           JUNCTION        0.22          0.614        0.816
  YS02001788           JUNCTION        0.01          0.502        0.978
  YS02001790           JUNCTION        0.34          0.669        0.488
  YS02001791           JUNCTION        0.40          0.870        1.050
  YS02001793           JUNCTION        0.55          0.796        1.804
  YS02001882           JUNCTION        0.27          0.675        0.155
  YS02001884           JUNCTION        0.27          0.706        0.164
  YS02001887           JUNCTION        0.30          0.773        0.177
  YS02001890           JUNCTION        0.32          0.760        0.000
  YS02001895           JUNCTION        0.26          0.595        0.155
  YS02001898           JUNCTION        0.26          0.557        0.183
  YS02001901           JUNCTION        0.29          0.683        0.187
  YS02001904           JUNCTION        0.28          0.645        0.205
  YS02001907           JUNCTION        0.49          0.950        0.000
  YS02001910           JUNCTION        0.33          0.961        0.139
  YS02001915           JUNCTION        0.26          0.906        0.094
  YS02001918           JUNCTION        0.19          0.810        0.000
  YS02001920           JUNCTION        0.20          1.140        0.000
  YS02001923           JUNCTION        0.01          0.820        0.000
  YS02001926           JUNCTION        0.02          0.900        0.000
  YS02001929           JUNCTION        0.01          0.780        0.000
  YS02006553           JUNCTION        0.51          0.996        0.194
  YS02006556           JUNCTION        0.41          0.984        0.366
  YS02006558           JUNCTION        0.40          1.020        0.380
  YS02006561           JUNCTION        0.16          0.393        0.757
  YS02163301           JUNCTION        0.60          0.916        0.114
  YS02163601           JUNCTION        0.64          1.037        0.043
  YS02164001           JUNCTION        0.57          0.958        0.142
  YSB1154              JUNCTION        0.63          1.177        0.223
  YSB1171              JUNCTION        0.64          1.100        0.000
  YSB1174              JUNCTION        0.57          1.088        0.162
  YSB6556              JUNCTION        0.51          1.034        0.066
  
  
  *********************
  Node Flooding Summary
  *********************
  
  Flooding refers to all water that overflows a node, whether it ponds or not.
  --------------------------------------------------------------------------
                                                             Total   Maximum
                                 Maximum   Time of Max       Flood    Ponded
                        Hours       Rate    Occurrence      Volume     Depth
  Node                 Flooded       LPS   days hr:min    10^6 ltr    Meters
  --------------------------------------------------------------------------
  HS02004770              0.22    546.66      0  02:13       0.245     0.000
  HS02004777              0.01     62.62      0  02:08       0.000     0.000
  HS02004785              0.01    111.30      0  02:08       0.000     0.000
  HS02004788              0.01    214.55      0  02:08       0.001     0.000
  HS02004792              0.22    976.38      0  02:14       0.423     0.000
  HS02004799              0.05     57.28      0  02:11       0.002     0.000
  HS02004807              0.01     24.84      0  02:11       0.000     0.000
  HS02004817              0.01     12.04      0  02:11       0.000     0.000
  HS02004824              0.01     13.11      0  02:11       0.000     0.000
  HS02004830              0.01     22.77      0  02:11       0.000     0.000
  HS02004842              0.01    105.98      0  02:11       0.001     0.000
  HS02004852              0.01    176.88      0  02:11       0.000     0.000
  HS02004856              0.01    342.29      0  02:11       0.002     0.000
  HS02004862              0.01    245.50      0  02:11       0.001     0.000
  HS02004901              0.27    484.28      0  02:14       0.343     0.000
  WS02006109              0.25    207.84      0  02:14       0.111     0.000
  WS02006110              0.01      8.01      0  01:59       0.000     0.000
  WS02006113              0.01     91.63      0  01:59       0.000     0.000
  WS02006230              0.49    544.62      0  02:14       0.584     0.000
  WS02006232              0.12      0.61      0  02:29       0.000     0.000
  WS02006234              0.54    128.41      0  02:24       0.161     0.000
  WS02006235              0.01     12.58      0  03:05       0.000     0.000
  WS02006242              0.63    137.52      0  02:34       0.269     0.000
  WS02006243              0.01     41.16      0  01:57       0.000     0.000
  WS02006245              0.01     88.12      0  01:57       0.000     0.000
  WS02006248              0.90    342.81      0  02:06       0.923     0.000
  WS02006249              1.18   1277.35      0  02:11       2.900     0.000
  WS02006251              0.01     30.00      0  02:05       0.000     0.000
  WS02006252              0.23    312.07      0  02:11       0.107     0.000
  WS02006256              0.82    293.19      0  00:00       0.459     0.000
  YS02001580              0.01     94.73      0  02:08       0.000     0.000
  YS02001586              0.24    135.91      0  02:15       0.068     0.000
  YS02001590              0.01      6.58      0  02:08       0.000     0.000
  YS02001600              0.01      1.71      0  02:08       0.000     0.000
  YS02001601              0.39    709.85      0  02:14       0.571     0.000
  YS02001602              0.31     62.03      0  02:17       0.060     0.000
  YS02001605              0.01      0.14      0  02:23       0.000     0.000
  YS02001610              0.26    282.03      0  02:16       0.162     0.000
  YS02001625              0.24    878.20      0  02:15       0.358     0.000
  YS02001629              0.04     63.81      0  02:13       0.006     0.000
  YS02001644              0.04    232.06      0  02:13       0.019     0.000
  YS02001770              0.01      8.80      0  02:13       0.000     0.000
  YS02001779              0.01    337.90      0  02:11       0.003     0.000
  YS02001890              0.02     40.16      0  02:12       0.001     0.000
  YS02001907              0.14    959.07      0  02:13       0.223     0.000
  YS02001918              0.01    208.82      0  02:12       0.003     0.000
  YS02001920              0.01     49.37      0  02:12       0.000     0.000
  YS02001923              0.01    132.20      0  02:12       0.000     0.000
  YS02001926              0.01    117.61      0  02:12       0.001     0.000
  YS02001929              0.01     96.61      0  02:12       0.000     0.000
  YSB1171                 0.11    343.88      0  02:14       0.087     0.000
  JK-storage              0.16    164.35      0  02:37       0.047     0.000
  
  
  **********************
  Storage Volume Summary
  **********************
  
  --------------------------------------------------------------------------------------------------
                         Average     Avg  Evap Exfil       Maximum     Max    Time of Max    Maximum
                          Volume    Pcnt  Pcnt  Pcnt        Volume    Pcnt     Occurrence    Outflow
  Storage Unit           1000 m3    Full  Loss  Loss       1000 m3    Full    days hr:min        LPS
  --------------------------------------------------------------------------------------------------
  CC-storage               3.046      48     0     0         4.422      69       0  02:30    1783.53
  JK-storage               0.162      56     0     0         0.291     100       0  02:35    2300.00
  XR-storage               0.953      66     0     0         1.111      77       0  08:00     380.00
  
  
  ***********************
  Outfall Loading Summary
  ***********************
  
  -----------------------------------------------------------
                         Flow       Avg       Max       Total
                         Freq      Flow      Flow      Volume
  Outfall Node           Pcnt       LPS       LPS    10^6 ltr
  -----------------------------------------------------------
  CC-1                  18.76    683.00    683.00       2.733
  CC-2                  11.44    683.00    683.00       1.794
  JK-1                  17.30    299.85   1000.00       1.063
  JK-2                  14.86    271.01   1000.00       0.796
  WSC                   99.96    538.10   1479.78      12.567
  -----------------------------------------------------------
  System                32.46   2474.96   1479.78      18.953
  
  
  ********************
  Link Flow Summary
  ********************
  
  -----------------------------------------------------------------------------
                                 Maximum  Time of Max   Maximum    Max/    Max/
                                  |Flow|   Occurrence   |Veloc|    Full    Full
  Link                 Type          LPS  days hr:min     m/sec    Flow   Depth
  -----------------------------------------------------------------------------
  1                    CONDUIT   1479.78     0  02:18      3.68    0.52    0.51
  HS02004478WS02006287 CONDUIT   2246.81     0  02:14      2.62    0.63    1.00
  HS02004479HS02004480 CONDUIT    451.23     0  02:11      0.64    0.44    1.00
  HS02004480HS02004478 CONDUIT   2110.02     0  02:09      3.01    8.89    1.00
  HS02004770HS02004777 CONDUIT    757.12     0  02:08      1.08    1.38    1.00
  HS02004777HS02004785 CONDUIT    783.72     0  02:08      1.17    0.96    1.00
  HS02004785HS02004788 CONDUIT    635.54     0  02:08      1.36    4.79    1.00
  HS02004788HS02004792 CONDUIT    810.39     0  02:08      1.42    0.54    1.00
  HS02004792HS02004799 CONDUIT   1630.48     0  02:09      2.33    1.00    1.00
  HS02004799HS02004480 CONDUIT   1771.02     0  02:09      2.53    2.24    1.00
  HS02004802HS02004478 CONDUIT    734.99     0  02:14      1.05    0.65    1.00
  HS02004807HS02004802 CONDUIT    735.28     0  02:14      1.05    1.40    1.00
  HS02004817HS02004807 CONDUIT    464.19     0  02:14      0.66    0.27    1.00
  HS02004817HS02004824 CONDUIT    463.34     0  02:14      0.66    0.21    1.00
  HS02004824HS02004830 CONDUIT    653.59     0  02:09      0.96    0.86    1.00
  HS02004830HS02004837 CONDUIT    654.09     0  02:09      1.01    0.65    1.00
  HS02004837HS02004842 CONDUIT    830.96     0  02:09      1.19    0.50    1.00
  HS02004842HS02004848 CONDUIT    831.14     0  02:09      1.31    0.48    1.00
  HS02004848HS02004852 CONDUIT   1076.93     0  02:11      1.63    1.21    1.00
  HS02004852HS02004856 CONDUIT   1082.96     0  02:11      1.55    1.24    1.00
  HS02004856HS02004862 CONDUIT   1072.61     0  02:10      1.70    1.07    1.00
  HS02004862HS02004870 CONDUIT   1205.96     0  02:11      1.95    1.30    1.00
  HS02004870HS02004876 CONDUIT   1184.89     0  02:11      1.81    0.79    1.00
  HS02004876HS02004881 CONDUIT   1338.31     0  02:11      2.37   14.23    1.00
  HS02004881HS02006253 CONDUIT   1418.32     0  02:11      2.74    0.28    1.00
  HS02004901HS02004770 CONDUIT    265.35     0  02:21      0.38    1.00    1.00
  WS02001211WS02001212 CONDUIT    212.38     0  03:11      0.54    0.16    0.68
  WS02001212WS02001213 CONDUIT    217.29     0  03:12      1.04    0.34    0.55
  WS02001213WS02003059 CONDUIT    224.09     0  03:12      0.47    0.37    0.89
  WS02003059WS02003060 CONDUIT    232.51     0  03:12      0.67    0.15    0.80
  WS02003060WS02003069 CONDUIT   1477.34     0  02:16      2.08    0.58    0.60
  WS02003066WSF200     CONDUIT   1275.43     0  02:14      3.25    0.22    0.38
  WS02003067WS02003066 CONDUIT   1275.44     0  02:14      1.98    0.41    0.56
  WS02003069WS02003072 CONDUIT   1477.53     0  02:16      1.88    0.71    0.66
  WS02003072WS02003073 CONDUIT   1477.63     0  02:17      2.04    3.19    0.61
  WS02004138WS02004139 CONDUIT    190.00     0  00:32      2.15    0.04    0.41
  WS02004139WS02001211 CONDUIT    201.46     0  02:05      0.54    0.25    0.60
  WS02004401WS02004402 CONDUIT   1276.20     0  02:13      1.62    1.53    1.00
  WS02004402WS02004403 CONDUIT   1276.09     0  02:13      1.62    1.83    1.00
  WS02004403WS02004404 CONDUIT   1275.99     0  02:13      1.62    0.92    1.00
  WS02004404WS02004405 CONDUIT   1276.92     0  02:13      1.63   12.51    1.00
  WS02004405WS02004406 CONDUIT   1276.40     0  02:13      1.63    2.52    1.00
  WS02004406WS02004407 CONDUIT   1276.13     0  02:13      1.77    0.57    0.94
  WS02004407WS02004409 CONDUIT   1275.30     0  02:14      1.83    0.45    0.94
  WS02004409WS02004410 CONDUIT   1275.61     0  02:14      1.62    1.65    1.00
  WS02004410WS02004411 CONDUIT   1275.78     0  02:14      1.62    1.74    1.00
  WS02004411WS02004412 CONDUIT   1275.52     0  02:14      1.62    1.81    1.00
  WS02004412WS02004413 CONDUIT   1275.65     0  02:14      1.62    0.85    1.00
  WS02004413WS02003067 CONDUIT   1275.46     0  02:14      1.98    0.55    0.76
  WS02006109WS02006110 CONDUIT   1119.85     0  02:24      2.23    2.15    1.00
  WS02006110WS02006113 CONDUIT   1119.73     0  02:24      2.23    1.02    1.00
  WS02006111WS02006112 CONDUIT   1119.30     0  02:24      2.23    0.53    1.00
  WS02006112WS02006115 CONDUIT   1275.19     0  02:13      1.62    0.75    1.00
  WS02006113WS02006111 CONDUIT   1119.34     0  02:24      2.61    1.34    1.00
  WS02006115WS02006116 CONDUIT   1275.72     0  02:13      1.62    1.64    1.00
  WS02006116WS02004401 CONDUIT   1275.44     0  02:13      1.62    1.76    1.00
  WS02006228WS02006109 CONDUIT   1258.74     0  02:13      2.50    5.50    1.00
  WS02006229WS02006228 CONDUIT   1259.14     0  02:13      2.50    4.17    1.00
  WS02006230WS02006229 CONDUIT    987.12     0  02:13      2.56   21.97    1.00
  WS02006231WS02006230 CONDUIT    453.32     0  02:08      1.18    6.88    1.00
  WS02006232WS02006231 CONDUIT    453.51     0  02:25      1.18    0.95    1.00
  WS02006234WS02006232 CONDUIT    453.13     0  02:11      1.41    0.92    1.00
  WS02006235WS02006234 CONDUIT    401.41     0  02:20      1.23    4.24    1.00
  WS02006238WS02006235 CONDUIT    417.79     0  02:23      1.45    0.93    1.00
  WS02006239WS02006238 CONDUIT    415.16     0  02:31      1.12    1.33    1.00
  WS02006240WS02006239 CONDUIT    414.93     0  02:23      1.26    1.31    1.00
  WS02006242WS02006240 CONDUIT    415.26     0  02:23      1.14    1.65    1.00
  WS02006243WS02006242 CONDUIT    385.82     0  03:15      1.34    0.82    1.00
  WS02006245WS02006243 CONDUIT    385.85     0  03:15      1.39    1.14    1.00
  WS02006247WS02006245 CONDUIT    385.90     0  03:15      1.37    3.06    1.00
  WS02006248WS02006247 CONDUIT    385.95     0  03:15      1.38    0.84    1.00
  WS02006249WS02006248 CONDUIT    390.96     0  00:04      1.38    2.14    1.00
  WS02006251WS02006249 CONDUIT   1338.98     0  02:11      3.48    3.86    1.00
  WS02006252WS02006251 CONDUIT    410.70     0  02:36      3.83    1.51    1.00
  WS02006253WS02006251 CONDUIT   1446.61     0  02:11      3.76    4.34    1.00
  WS02006256WS02006235 CONDUIT    288.93     0  00:00      4.23    3.06    1.00
  WS02006280WS02006229 CONDUIT   2247.70     0  02:13      4.50    0.48    1.00
  WS02006284WS02006280 CONDUIT   2246.01     0  02:13      2.96    0.94    1.00
  WS02006287WS02006284 CONDUIT   2245.32     0  02:13      2.86    1.04    1.00
  WSF200WS02003060     CONDUIT   1275.14     0  02:14      2.32    0.28    0.50
  YS02001580YS02001583 CONDUIT    116.29     0  02:08      0.67    0.45    1.00
  YS02001583YS02001586 CONDUIT    164.21     0  02:08      0.68    0.25    1.00
  YS02001586YS02001590 CONDUIT    317.89     0  02:21      1.27    0.56    1.00
  YS02001590YS02001593 CONDUIT    318.01     0  02:16      1.12    2.00    1.00
  YS02001593YS02001596 CONDUIT    317.97     0  02:13      1.73    0.50    1.00
  YS02001596YS02001600 CONDUIT    317.98     0  02:13      1.22    0.62    1.00
  YS02001600YS02001601 CONDUIT    318.37     0  02:23      1.13    0.55    1.00
  YS02001601YS02001602 CONDUIT    516.45     0  02:08      1.83    1.87    1.00
  YS02001602YS02001605 CONDUIT    515.50     0  02:08      1.82   10.91    1.00
  YS02001605YS02001607 CONDUIT    514.78     0  02:08      1.82    2.82    1.00
  YS02001607YS02001610 CONDUIT    515.07     0  02:07      0.66    0.49    1.00
  YS02001610YS02001613 CONDUIT    515.58     0  02:07      0.66    0.59    1.00
  YS02001613YS02001616 CONDUIT    517.45     0  02:08      0.66    0.44    1.00
  YS02001616YS02001619 CONDUIT    501.34     0  02:08      0.66    0.87    1.00
  YS02001619YS02001622 CONDUIT    927.81     0  02:10      1.19    1.37    1.00
  YS02001622YS02001625 CONDUIT    927.87     0  02:08      1.18    0.50    1.00
  YS02001625YS02001629 CONDUIT    928.99     0  02:08      1.18    0.44    1.00
  YS02001629YS02163301 CONDUIT    926.65     0  02:10      1.18    1.14    1.00
  YS02001633YS02163601 CONDUIT   1365.38     0  02:10      1.74    1.43    1.00
  YS02001641YS02001644 CONDUIT   1363.42     0  02:10      1.74    4.41    1.00
  YS02001644YS02001647 CONDUIT   1748.90     0  02:10      2.24    1.03    1.00
  YS02001647YS02001649 CONDUIT   1758.03     0  02:10      2.33    0.93    1.00
  YS02001649YS02001757 CONDUIT   1909.46     0  02:10      2.44    1.16    1.00
  YS02001652YS02001649 CONDUIT    648.59     0  02:13      0.83    0.32    1.00
  YS02001655YS02001652 CONDUIT    647.42     0  02:14      1.30    0.31    1.00
  YS02001658YS02001655 CONDUIT    646.00     0  02:14      1.92    0.27    1.00
  YS02001661YS02001658 CONDUIT    645.18     0  02:12      2.30    0.25    1.00
  YS02001664YS02001661 CONDUIT    771.59     0  02:14      2.27    0.24    0.72
  YS02001745YS02001748 CONDUIT    564.04     0  02:12      2.10    0.22    0.84
  YS02001748YS02001751 CONDUIT    377.59     0  02:13      1.65    0.19    1.00
  YS02001751YS02001754 CONDUIT    377.31     0  02:13      1.43    0.18    1.00
  YS02001754YS02001757 CONDUIT    376.61     0  02:13      0.48    0.15    1.00
  YS02001757CaochengTiaoxuchi CONDUIT   3066.38     0  02:13      3.90    1.33    1.00
  YS02001759YS02001757 CONDUIT   1111.29     0  02:13      1.41    0.79    1.00
  YS02001762YS02001759 CONDUIT    650.94     0  02:12      0.83    0.75    1.00
  YS02001765YS02001762 CONDUIT    648.05     0  02:14      0.83    0.61    1.00
  YS02001767YS02001765 CONDUIT    646.70     0  02:14      0.82    0.81    1.00
  YS02001770YS02001767 CONDUIT    645.29     0  02:14      0.82    2.56    1.00
  YS02001774YS02001770 CONDUIT    412.36     0  02:11      0.53    0.26    1.00
  YS02001779YS02001774 CONDUIT    419.43     0  02:11      0.54    0.21    1.00
  YS02001783YS02001784 CONDUIT   1151.73     0  02:13      2.29    1.59    1.00
  YS02001784YS02001785 CONDUIT   1152.60     0  02:13      2.29    2.68    1.00
  YS02001786YS02001788 CONDUIT   1157.29     0  02:12      2.47    2.23    1.00
  YS02001788YS02001790 CONDUIT   1165.09     0  02:12      2.70    0.86    1.00
  YS02001790YS02001791 CONDUIT   1274.25     0  02:14      3.40    1.39    1.00
  YS02001791YS02001793 CONDUIT   1231.83     0  02:13      6.74    0.53    1.00
  YS02001793JiankangQianchi CONDUIT   1229.40     0  02:17      2.46    0.10    1.00
  YS02001882YS02001884 CONDUIT     55.72     0  02:10      0.10    0.06    1.00
  YS02001884YS02001887 CONDUIT     79.64     0  02:10      0.10    0.11    1.00
  YS02001887YS02001890 CONDUIT    501.33     0  02:13      0.64    0.86    1.00
  YS02001890YS02001895 CONDUIT    492.66     0  02:13      0.63    0.23    1.00
  YS02001895YS02001898 CONDUIT    493.76     0  02:13      0.63    0.86    1.00
  YS02001898YS02001901 CONDUIT    493.79     0  02:13      0.63    0.32    1.00
  YS02001901YS02001904 CONDUIT    493.75     0  02:13      0.63    0.77    1.00
  YS02001904YS02001907 CONDUIT    493.45     0  02:13      0.63    0.17    1.00
  YS02001907YS02006553 CONDUIT    801.00     0  02:23      0.89    0.94    1.00
  YS02001910YS02001907 CONDUIT    980.98     0  02:13      1.25    0.55    1.00
  YS02001915YS02001910 CONDUIT    980.94     0  02:13      1.25    0.49    1.00
  YS02001918YS02001915 CONDUIT    454.59     0  02:13      0.58    0.25    1.00
  YS02001920YS02001918 CONDUIT    453.34     0  02:13      0.64    0.44    1.00
  YS02001923YS02001920 CONDUIT    449.45     0  02:13      0.72    0.20    1.00
  YS02001926YS02001923 CONDUIT    407.18     0  02:13      0.98    0.58    1.00
  YS02001929YS02001926 CONDUIT    403.55     0  02:13      1.16    0.19    1.00
  YS02006553YS02006556 CONDUIT    801.99     0  02:23      1.02    0.69    1.00
  YS02006556YS02006558 CONDUIT    805.39     0  02:23      1.03    0.64    1.00
  YS02006558YS02006561 CONDUIT   1169.31     0  02:12      4.14    2.58    1.00
  YS02006561YS02001783 CONDUIT   1151.75     0  02:13      2.29    0.60    1.00
  YS02163301YS02001633 CONDUIT    927.19     0  02:10      1.18    0.87    1.00
  YS02163601YS02164001 CONDUIT   1364.12     0  02:10      1.74    1.21    1.00
  YS02164001YS02001641 CONDUIT   1362.44     0  02:10      1.73    1.86    1.00
  YSB1154YSB6556       CONDUIT    275.92     0  02:13      0.72    0.50    1.00
  YSB1171HS02004479    CONDUIT    448.22     0  02:11      0.89    0.30    1.00
  YSB1174YSB1171       CONDUIT    236.90     0  02:13      0.62    0.36    1.00
  YSB6556YSB1171       CONDUIT    276.17     0  02:14      0.72    0.28    1.00
  CC-R1                PUMP       683.00     0  00:00              1.00
  CC-R2                PUMP       683.00     0  00:00              1.00
  CC-S1                PUMP       200.00     0  00:00              1.00
  CC-S2                PUMP       200.00     0  00:00              1.00
  JK-R1                PUMP      1000.00     0  00:00              1.00
  JK-R2                PUMP      1000.00     0  00:00              1.00
  JK-S                 PUMP       300.00     0  00:00              1.00
  XR-1                 PUMP        95.00     0  00:00              1.00
  XR-2                 PUMP        95.00     0  00:00              1.00
  XR-3                 PUMP        95.00     0  00:00              1.00
  XR-4                 PUMP        95.00     0  00:00              1.00
  
  
  ***************************
  Flow Classification Summary
  ***************************
  
  -------------------------------------------------------------------------------------
                      Adjusted    ---------- Fraction of Time in Flow Class ---------- 
                       /Actual         Up    Down  Sub   Sup   Up    Down  Norm  Inlet 
  Conduit               Length    Dry  Dry   Dry   Crit  Crit  Crit  Crit  Ltd   Ctrl  
  -------------------------------------------------------------------------------------
  1                       1.00   0.00  0.00  0.00  0.00  1.00  0.00  0.00  0.33  0.00
  HS02004478WS02006287    1.00   0.13  0.00  0.00  0.60  0.27  0.00  0.00  0.61  0.00
  HS02004479HS02004480    1.00   0.03  0.00  0.00  0.97  0.00  0.00  0.00  0.12  0.00
  HS02004480HS02004478    1.00   0.10  0.00  0.00  0.50  0.00  0.00  0.40  0.00  0.00
  HS02004770HS02004777    1.00   0.00  0.10  0.00  0.90  0.00  0.00  0.00  0.03  0.00
  HS02004777HS02004785    1.00   0.00  0.00  0.00  1.00  0.00  0.00  0.00  0.13  0.00
  HS02004785HS02004788    1.00   0.00  0.00  0.00  1.00  0.00  0.00  0.00  0.00  0.00
  HS02004788HS02004792    1.00   0.00  0.00  0.00  0.99  0.01  0.00  0.00  0.92  0.00
  HS02004792HS02004799    1.00   0.00  0.00  0.00  0.99  0.01  0.00  0.00  0.89  0.00
  HS02004799HS02004480    1.00   0.00  0.03  0.00  0.88  0.00  0.10  0.00  0.00  0.00
  HS02004802HS02004478    1.00   0.10  0.01  0.00  0.89  0.00  0.00  0.00  0.03  0.00
  HS02004807HS02004802    1.00   0.10  0.00  0.00  0.89  0.00  0.00  0.02  0.00  0.00
  HS02004817HS02004807    1.00   0.00  0.10  0.00  0.90  0.00  0.00  0.00  0.01  0.00
  HS02004817HS02004824    1.00   0.00  0.00  0.00  1.00  0.00  0.00  0.00  0.85  0.00
  HS02004824HS02004830    1.00   0.00  0.00  0.00  1.00  0.00  0.00  0.00  0.01  0.00
  HS02004830HS02004837    1.00   0.00  0.00  0.00  1.00  0.00  0.00  0.00  0.91  0.00
  HS02004837HS02004842    1.00   0.00  0.00  0.00  1.00  0.00  0.00  0.00  0.11  0.00
  HS02004842HS02004848    1.00   0.00  0.10  0.00  0.90  0.00  0.00  0.00  0.59  0.00
  HS02004848HS02004852    1.00   0.10  0.00  0.00  0.90  0.00  0.00  0.00  0.70  0.00
  HS02004852HS02004856    1.00   0.10  0.01  0.00  0.89  0.00  0.00  0.00  0.71  0.00
  HS02004856HS02004862    1.00   0.00  0.14  0.00  0.86  0.00  0.00  0.00  0.76  0.00
  HS02004862HS02004870    1.00   0.00  0.00  0.00  1.00  0.00  0.00  0.00  0.04  0.00
  HS02004870HS02004876    1.00   0.00  0.00  0.00  0.99  0.01  0.00  0.00  0.88  0.00
  HS02004876HS02004881    1.00   0.02  0.00  0.00  0.78  0.21  0.00  0.00  0.00  0.00
  HS02004881HS02006253    1.00   0.03  0.01  0.00  0.33  0.02  0.00  0.61  0.14  0.00
  HS02004901HS02004770    1.00   0.10  0.00  0.00  0.90  0.00  0.00  0.00  0.00  0.00
  WS02001211WS02001212    1.00   0.00  0.02  0.00  0.98  0.00  0.00  0.00  0.00  0.00
  WS02001212WS02001213    1.00   0.02  0.00  0.00  0.38  0.00  0.60  0.00  0.00  0.00
  WS02001213WS02003059    1.00   0.00  0.00  0.00  0.99  0.00  0.00  0.00  0.00  0.00
  WS02003059WS02003060    1.00   0.00  0.00  0.00  1.00  0.00  0.00  0.00  0.03  0.00
  WS02003060WS02003069    1.00   0.00  0.00  0.00  0.99  0.01  0.00  0.00  0.52  0.00
  WS02003066WSF200        1.00   0.09  0.00  0.00  0.00  0.91  0.00  0.00  0.66  0.00
  WS02003067WS02003066    1.00   0.08  0.01  0.00  0.91  0.00  0.00  0.00  0.00  0.00
  WS02003069WS02003072    1.00   0.00  0.00  0.00  1.00  0.00  0.00  0.00  0.70  0.00
  WS02003072WS02003073    1.00   0.00  0.00  0.00  0.00  0.00  0.00  1.00  0.00  0.00
  WS02004138WS02004139    1.00   0.00  0.00  0.00  0.98  0.01  0.00  0.01  0.98  0.00
  WS02004139WS02001211    1.00   0.00  0.00  0.00  1.00  0.00  0.00  0.00  0.00  0.00
  WS02004401WS02004402    1.00   0.02  0.00  0.00  0.98  0.00  0.00  0.00  0.00  0.00
  WS02004402WS02004403    1.00   0.02  0.00  0.00  0.98  0.00  0.00  0.00  0.00  0.00
  WS02004403WS02004404    1.00   0.00  0.02  0.00  0.98  0.00  0.00  0.00  0.00  0.00
  WS02004404WS02004405    1.00   0.00  0.00  0.00  1.00  0.00  0.00  0.00  0.00  0.00
  WS02004405WS02004406    1.00   0.00  0.00  0.00  1.00  0.00  0.00  0.00  0.00  0.00
  WS02004406WS02004407    1.00   0.00  0.04  0.00  0.96  0.00  0.00  0.00  0.00  0.00
  WS02004407WS02004409    1.00   0.04  0.00  0.00  0.96  0.01  0.00  0.00  0.85  0.00
  WS02004409WS02004410    1.00   0.04  0.00  0.00  0.96  0.00  0.00  0.00  0.02  0.00
  WS02004410WS02004411    1.00   0.04  0.00  0.00  0.96  0.00  0.00  0.00  0.00  0.00
  WS02004411WS02004412    1.00   0.04  0.00  0.00  0.96  0.00  0.00  0.00  0.00  0.00
  WS02004412WS02004413    1.00   0.04  0.00  0.00  0.95  0.00  0.00  0.00  0.01  0.00
  WS02004413WS02003067    1.00   0.05  0.03  0.00  0.00  0.00  0.92  0.00  0.00  0.00
  WS02006109WS02006110    1.00   0.00  0.01  0.00  0.99  0.00  0.01  0.00  0.00  0.00
  WS02006110WS02006113    1.00   0.01  0.01  0.00  0.99  0.00  0.00  0.00  0.00  0.00
  WS02006111WS02006112    1.00   0.02  0.00  0.00  0.98  0.00  0.00  0.00  0.81  0.00
  WS02006112WS02006115    1.00   0.02  0.00  0.00  0.98  0.00  0.00  0.00  0.00  0.00
  WS02006113WS02006111    1.00   0.01  0.00  0.00  0.20  0.79  0.00  0.00  0.06  0.00
  WS02006115WS02006116    1.00   0.02  0.00  0.00  0.98  0.00  0.00  0.01  0.00  0.00
  WS02006116WS02004401    1.00   0.02  0.00  0.00  0.98  0.00  0.00  0.00  0.00  0.00
  WS02006228WS02006109    1.00   0.00  0.00  0.00  1.00  0.00  0.00  0.00  0.00  0.00
  WS02006229WS02006228    1.00   0.00  0.00  0.00  0.99  0.00  0.00  0.01  0.00  0.00
  WS02006230WS02006229    1.00   0.00  0.00  0.00  0.99  0.00  0.00  0.01  0.02  0.00
  WS02006231WS02006230    1.00   0.00  0.00  0.00  0.37  0.00  0.63  0.00  0.00  0.00
  WS02006232WS02006231    1.00   0.00  0.00  0.00  0.99  0.00  0.01  0.00  0.00  0.00
  WS02006234WS02006232    1.00   0.00  0.00  0.00  1.00  0.00  0.00  0.00  0.01  0.00
[...]
  WSF200WS02003060        1.00   0.00  0.09  0.00  0.58  0.32  0.00  0.00  0.64  0.00
  YS02001580YS02001583    1.00   0.25  0.50  0.00  0.24  0.00  0.00  0.00  0.67  0.00
  YS02001583YS02001586    1.00   0.38  0.28  0.00  0.34  0.00  0.00  0.00  0.67  0.00
  YS02001586YS02001590    1.00   0.10  0.00  0.00  0.52  0.03  0.00  0.35  0.35  0.00
  YS02001590YS02001593    1.00   0.10  0.01  0.00  0.11  0.00  0.79  0.00  0.00  0.00
  YS02001593YS02001596    1.00   0.10  0.00  0.00  0.13  0.01  0.00  0.76  0.02  0.00
  YS02001596YS02001600    1.00   0.10  0.00  0.00  0.22  0.02  0.00  0.66  0.05  0.00
  YS02001600YS02001601    1.00   0.10  0.01  0.00  0.89  0.00  0.00  0.00  0.64  0.00
  YS02001601YS02001602    1.00   0.10  0.01  0.00  0.90  0.00  0.00  0.00  0.00  0.00
  YS02001602YS02001605    1.00   0.10  0.00  0.00  0.89  0.00  0.00  0.00  0.00  0.00
  YS02001605YS02001607    1.00   0.11  0.00  0.00  0.89  0.00  0.00  0.00  0.00  0.00
  YS02001607YS02001610    1.00   0.10  0.01  0.00  0.89  0.00  0.00  0.00  0.02  0.00
  YS02001610YS02001613    1.00   0.10  0.00  0.00  0.90  0.00  0.00  0.00  0.01  0.00
  YS02001613YS02001616    1.00   0.10  0.00  0.00  0.90  0.00  0.00  0.00  0.01  0.00
  YS02001616YS02001619    1.00   0.10  0.00  0.00  0.90  0.00  0.00  0.00  0.00  0.00
  YS02001619YS02001622    1.00   0.10  0.00  0.00  0.90  0.00  0.00  0.00  0.35  0.00
  YS02001622YS02001625    1.00   0.10  0.00  0.00  0.90  0.00  0.00  0.00  0.06  0.00
  YS02001625YS02001629    1.00   0.10  0.04  0.00  0.16  0.00  0.70  0.00  0.00  0.00
  YS02001629YS02163301    1.00   0.12  0.01  0.00  0.87  0.00  0.00  0.00  0.00  0.00
  YS02001633YS02163601    1.00   0.00  0.00  0.00  1.00  0.00  0.00  0.00  0.15  0.00
  YS02001641YS02001644    1.00   0.00  0.00  0.00  1.00  0.00  0.00  0.00  0.00  0.00
  YS02001644YS02001647    1.00   0.00  0.14  0.00  0.86  0.00  0.00  0.00  0.00  0.00
  YS02001647YS02001649    1.00   0.00  0.14  0.00  0.75  0.11  0.00  0.00  0.17  0.00
  YS02001649YS02001757    1.00   0.00  0.00  0.00  0.91  0.08  0.00  0.00  0.20  0.00
  YS02001652YS02001649    1.00   0.00  0.00  0.00  0.97  0.03  0.00  0.00  0.19  0.00
  YS02001655YS02001652    1.00   0.00  0.00  0.00  0.68  0.05  0.00  0.27  0.62  0.00
  YS02001658YS02001655    1.00   0.00  0.11  0.00  0.52  0.37  0.00  0.00  0.73  0.00
  YS02001661YS02001658    1.00   0.11  0.00  0.00  0.42  0.47  0.00  0.00  0.72  0.00
  YS02001664YS02001661    1.00   0.10  0.00  0.00  0.76  0.14  0.00  0.00  0.86  0.00
  YS02001745YS02001748    1.00   0.00  0.00  0.00  0.08  0.01  0.00  0.91  0.04  0.00
  YS02001748YS02001751    1.00   0.00  0.00  0.00  0.73  0.27  0.00  0.00  0.78  0.00
  YS02001751YS02001754    1.00   0.00  0.00  0.00  0.55  0.03  0.00  0.41  0.54  0.00
  YS02001754YS02001757    1.00   0.00  0.00  0.00  1.00  0.00  0.00  0.00  0.26  0.00
  YS02001757CaochengTiaoxuchi    1.00   0.00  0.00  0.00  1.00  0.00  0.00  0.00  0.26  0.00
  YS02001759YS02001757    1.00   0.00  0.00  0.00  1.00  0.00  0.00  0.00  0.08  0.00
  YS02001762YS02001759    1.00   0.00  0.00  0.00  1.00  0.00  0.00  0.00  0.05  0.00
  YS02001765YS02001762    1.00   0.00  0.00  0.00  1.00  0.00  0.00  0.00  0.17  0.00
  YS02001767YS02001765    1.00   0.00  0.00  0.00  1.00  0.00  0.00  0.00  0.00  0.00
  YS02001770YS02001767    1.00   0.00  0.00  0.00  1.00  0.00  0.00  0.00  0.00  0.00
  YS02001774YS02001770    1.00   0.00  0.10  0.00  0.90  0.00  0.00  0.00  0.04  0.00
  YS02001779YS02001774    1.00   0.00  0.00  0.00  1.00  0.00  0.00  0.00  0.45  0.00
  YS02001783YS02001784    1.00   0.00  0.15  0.00  0.85  0.00  0.00  0.00  0.58  0.00
  YS02001784YS02001785    1.00   0.00  0.00  0.00  1.00  0.00  0.00  0.00  0.18  0.00
  YS02001786YS02001788    1.00   0.00  0.00  0.00  0.75  0.25  0.00  0.00  0.00  0.00
  YS02001788YS02001790    1.00   0.00  0.00  0.00  0.25  0.75  0.00  0.00  0.83  0.00
  YS02001790YS02001791    1.00   0.00  0.00  0.00  0.10  0.90  0.00  0.00  0.09  0.00
  YS02001791YS02001793    1.00   0.00  0.00  0.00  0.11  0.89  0.00  0.00  0.01  0.00
  YS02001793JiankangQianchi    1.00   0.00  0.00  0.00  0.99  0.01  0.00  0.00  0.90  0.00
  YS02001882YS02001884    1.00   0.12  0.01  0.00  0.87  0.00  0.00  0.00  0.00  0.00
  YS02001884YS02001887    1.00   0.05  0.04  0.00  0.91  0.00  0.00  0.00  0.00  0.00
  YS02001887YS02001890    1.00   0.00  0.00  0.00  0.98  0.00  0.02  0.00  0.00  0.00
  YS02001890YS02001895    1.00   0.00  0.13  0.00  0.87  0.00  0.00  0.00  0.00  0.00
  YS02001895YS02001898    1.00   0.13  0.00  0.00  0.85  0.00  0.02  0.00  0.00  0.00
  YS02001898YS02001901    1.00   0.13  0.00  0.00  0.86  0.00  0.00  0.00  0.01  0.00
  YS02001901YS02001904    1.00   0.13  0.00  0.00  0.87  0.00  0.00  0.00  0.00  0.00
  YS02001904YS02001907    1.00   0.00  0.13  0.00  0.87  0.00  0.00  0.00  0.00  0.00
  YS02001907YS02006553    1.00   0.00  0.02  0.00  0.98  0.00  0.00  0.00  0.00  0.00
  YS02001910YS02001907    1.00   0.00  0.00  0.00  0.98  0.00  0.00  0.02  0.12  0.00
  YS02001915YS02001910    1.00   0.00  0.00  0.00  0.97  0.03  0.00  0.00  0.17  0.00
  YS02001918YS02001915    1.00   0.00  0.00  0.00  0.98  0.01  0.00  0.00  0.79  0.00
  YS02001920YS02001918    1.00   0.00  0.00  0.00  1.00  0.00  0.00  0.00  0.00  0.00
  YS02001923YS02001920    1.00   0.00  0.00  0.00  1.00  0.00  0.00  0.00  0.95  0.00
  YS02001926YS02001923    1.00   0.00  0.06  0.00  0.04  0.00  0.91  0.00  0.00  0.00
  YS02001929YS02001926    1.00   0.00  0.10  0.00  0.90  0.00  0.00  0.00  0.85  0.00
  YS02006553YS02006556    1.00   0.01  0.00  0.00  0.99  0.00  0.00  0.00  0.03  0.00
  YS02006556YS02006558    1.00   0.00  0.00  0.00  1.00  0.00  0.00  0.00  0.00  0.00
  YS02006558YS02006561    1.00   0.15  0.00  0.00  0.04  0.82  0.00  0.00  0.18  0.00
  YS02006561YS02001783    1.00   0.15  0.00  0.00  0.12  0.73  0.00  0.00  0.73  0.00
  YS02163301YS02001633    1.00   0.00  0.12  0.00  0.88  0.00  0.00  0.00  0.00  0.00
  YS02163601YS02164001    1.00   0.00  0.06  0.00  0.94  0.00  0.00  0.00  0.00  0.00
  YS02164001YS02001641    1.00   0.00  0.06  0.00  0.94  0.00  0.00  0.00  0.06  0.00
  YSB1154YSB6556          1.00   0.10  0.00  0.00  0.90  0.00  0.00  0.00  0.02  0.00
  YSB1171HS02004479       1.00   0.03  0.00  0.00  0.96  0.00  0.00  0.01  0.10  0.00
  YSB1174YSB1171          1.00   0.04  0.03  0.00  0.93  0.00  0.00  0.00  0.00  0.00
  YSB6556YSB1171          1.00   0.03  0.06  0.00  0.91  0.00  0.00  0.00  0.00  0.00
  
  
  *************************
  Conduit Surcharge Summary
  *************************
  
  ----------------------------------------------------------------------------
                                                           Hours        Hours 
                         --------- Hours Full --------   Above Full   Capacity
  Conduit                Both Ends  Upstream  Dnstream   Normal Flow   Limited
  ----------------------------------------------------------------------------
  HS02004478WS02006287        0.30      0.30      0.46      0.01         0.01
  HS02004479HS02004480        0.46      0.46      0.48      0.01         0.01
  HS02004480HS02004478        0.40      0.45      0.40      1.46         0.40
  HS02004770HS02004777        0.37      0.37      0.38      0.09         0.06
  HS02004777HS02004785        0.33      0.33      0.38      0.01         0.01
  HS02004785HS02004788        0.32      0.33      0.32      1.14         0.31
  HS02004788HS02004792        0.32      0.32      0.43      0.01         0.01
  HS02004792HS02004799        0.43      0.43      0.54      0.01         0.01
  HS02004799HS02004480        0.45      0.45      0.54      0.62         0.01
  HS02004802HS02004478        0.41      0.41      0.47      0.01         0.01
  HS02004807HS02004802        0.44      0.44      0.46      0.10         0.10
  HS02004817HS02004807        0.44      0.44      0.94      0.01         0.01
  HS02004817HS02004824        0.32      0.32      0.94      0.01         0.01
  HS02004824HS02004830        0.29      0.29      0.32      0.01         0.01
  HS02004830HS02004837        0.26      0.26      0.29      0.01         0.01
  HS02004837HS02004842        0.26      0.26      0.38      0.01         0.01
  HS02004842HS02004848        0.23      0.23      0.38      0.01         0.01
  HS02004848HS02004852        0.23      0.23      0.24      0.03         0.01
  HS02004852HS02004856        0.24      0.24      0.25      0.02         0.01
  HS02004856HS02004862        0.23      0.23      0.26      0.01         0.01
  HS02004862HS02004870        0.26      0.26      0.27      0.03         0.02
  HS02004870HS02004876        0.27      0.27      0.33      0.01         0.01
  HS02004876HS02004881        0.30      0.33      0.30      1.16         0.30
  HS02004881HS02006253        0.30      0.30      1.17      0.01         0.01
  HS02004901HS02004770        0.37      0.37      0.38      0.01         0.01
  WS02003072WS02003073        0.01      0.01      0.01      1.88         0.01
  WS02004401WS02004402        1.20      1.20      1.22      1.11         1.12
  WS02004402WS02004403        1.22      1.22      1.22      1.20         1.19
  WS02004403WS02004404        1.22      1.22      1.39      0.01         0.01
  WS02004404WS02004405        1.38      1.39      1.38      2.53         1.38
  WS02004405WS02004406        1.36      1.38      1.36      1.52         1.36
  WS02004406WS02004407        0.01      0.01      1.36      0.01         0.01
  WS02004407WS02004409        0.01      0.01      0.75      0.01         0.01
  WS02004409WS02004410        0.72      0.75      0.72      1.14         0.72
  WS02004410WS02004411        0.65      0.72      0.65      1.18         0.65
  WS02004411WS02004412        0.56      0.65      0.56      1.20         0.56
  WS02004412WS02004413        0.56      0.56      1.04      0.01         0.01
  WS02004413WS02003067        0.01      0.01      1.04      0.01         0.01
  WS02006109WS02006110        1.47      1.47      1.69      1.47         0.01
  WS02006110WS02006113        0.99      0.99      1.68      0.17         0.01
  WS02006111WS02006112        0.96      0.96      1.81      0.01         0.01
  WS02006112WS02006115        1.15      1.15      1.55      0.01         0.01
  WS02006113WS02006111        0.98      0.99      0.98      1.09         0.97
  WS02006115WS02006116        1.15      1.15      1.16      1.14         1.13
  WS02006116WS02004401        1.20      1.20      1.20      1.18         1.16
  WS02006228WS02006109        1.67      1.69      1.67      2.00         1.67
  WS02006229WS02006228        1.66      1.67      1.66      1.79         1.66
  WS02006230WS02006229        1.72      1.73      1.72      2.45         0.81
  WS02006231WS02006230        1.37      1.37      1.39      1.96         0.75
  WS02006232WS02006231        1.38      1.38      1.51      0.01         0.10
  WS02006234WS02006232        1.42      1.42      1.51      0.01         0.01
  WS02006235WS02006234        1.39      1.39      1.42      1.79         0.71
  WS02006238WS02006235        1.43      1.43      1.46      0.01         0.25
  WS02006239WS02006238        1.43      1.43      1.44      0.73         0.13
  WS02006240WS02006239        1.37      1.37      1.38      0.72         0.11
  WS02006242WS02006240        1.37      1.37      1.42      0.96         0.65
  WS02006243WS02006242        1.34      1.34      1.40      0.01         0.01
  WS02006245WS02006243        1.32      1.32      1.33      0.12         0.09
  WS02006247WS02006245        1.32      1.33      1.32      1.40         0.38
  WS02006248WS02006247        1.30      1.30      1.32      0.01         0.01
  WS02006249WS02006248        1.28      1.28      1.30      0.53         0.01
  WS02006251WS02006249        1.28      1.29      1.30      1.16         1.12
  WS02006252WS02006251        1.25      1.26      1.28      0.79         0.01
  WS02006253WS02006251        1.28      1.28      1.29      0.56         0.03
  WS02006256WS02006235        2.18      2.19      7.92      0.58         0.01
  WS02006280WS02006229        0.56      0.56      0.70      0.01         0.01
  WS02006284WS02006280        0.48      0.48      0.55      0.01         0.01
  WS02006287WS02006284        0.39      0.39      0.49      0.13         0.13
  YS02001580YS02001583        0.34      0.34      0.38      0.01         0.01
  YS02001583YS02001586        0.34      0.34      0.45      0.01         0.01
  YS02001586YS02001590        0.46      0.46      0.52      0.01         0.01
  YS02001590YS02001593        0.51      0.51      0.53      0.54         0.01
  YS02001593YS02001596        0.53      0.53      0.61      0.01         0.01
  YS02001596YS02001600        0.65      0.65      0.74      0.01         0.01
  YS02001600YS02001601        0.79      0.79      1.07      0.01         0.01
  YS02001601YS02001602        0.95      0.95      1.12      0.73         0.01
  YS02001602YS02001605        0.90      0.90      0.95      1.92         0.01
  YS02001605YS02001607        0.86      0.90      0.86      1.03         0.86
  YS02001607YS02001610        0.50      0.50      0.52      0.01         0.01
  YS02001610YS02001613        0.49      0.49      0.52      0.01         0.01
  YS02001613YS02001616        0.45      0.45      0.49      0.01         0.01
  YS02001616YS02001619        0.44      0.44      0.45      0.01         0.01
  YS02001619YS02001622        0.44      0.44      0.44      0.52         0.41
  YS02001622YS02001625        0.44      0.44      0.59      0.01         0.01
  YS02001625YS02001629        0.40      0.40      0.59      0.01         0.01
  YS02001629YS02163301        0.59      0.59      0.59      0.06         0.12
  YS02001633YS02163601        0.62      0.62      0.64      0.28         0.27
  YS02001641YS02001644        0.53      0.56      0.53      1.17         0.53
  YS02001644YS02001647        0.36      0.36      0.53      0.02         0.01
  YS02001647YS02001649        0.36      0.36      0.46      0.01         0.01
  YS02001649YS02001757        0.45      0.46      0.51      0.06         0.04
  YS02001652YS02001649        0.32      0.32      0.46      0.01         0.01
  YS02001655YS02001652        0.19      0.19      0.30      0.01         0.01
  YS02001658YS02001655        0.06      0.06      0.19      0.01         0.01
  YS02001661YS02001658        0.01      0.01      0.06      0.01         0.01
  YS02001664YS02001661        0.01      0.01      0.01      0.01         0.01
  YS02001745YS02001748        0.01      0.01      0.01      0.01         0.01
  YS02001748YS02001751        0.04      0.04      0.12      0.01         0.01
  YS02001751YS02001754        0.12      0.12      0.23      0.01         0.01
  YS02001754YS02001757        0.25      0.25      0.51      0.01         0.01
  YS02001757CaochengTiaoxuchi        0.51      0.51      5.90      0.18         0.17
  YS02001759YS02001757        0.42      0.42      0.51      0.01         0.01
  YS02001762YS02001759        0.40      0.40      0.42      0.01         0.02
  YS02001765YS02001762        0.36      0.36      0.40      0.01         0.01
  YS02001767YS02001765        0.34      0.34      0.36      0.01         0.01
  YS02001770YS02001767        0.34      0.34      0.34      0.30         0.23
  YS02001774YS02001770        0.31      0.31      0.39      0.01         0.01
  YS02001779YS02001774        0.22      0.22      0.39      0.01         0.01
  YS02001783YS02001784        0.29      0.31      0.29      0.44         0.29
  YS02001784YS02001785        0.22      0.29      0.22      0.62         0.22
  YS02001786YS02001788        0.01      0.22      0.01      0.50         0.01
  YS02001788YS02001790        0.01      0.01      0.34      0.01         0.01
  YS02001790YS02001791        0.34      0.34      0.40      0.28         0.01
  YS02001791YS02001793        0.40      0.40      0.61      0.01         0.01
  YS02001793JiankangQianchi        0.55      0.55      7.70      0.01         0.01
  YS02001882YS02001884        0.27      0.27      0.27      0.01         0.01
  YS02001884YS02001887        0.29      0.29      0.30      0.01         0.01
  YS02001887YS02001890        0.32      0.32      0.33      0.01         0.01
  YS02001890YS02001895        0.26      0.26      0.34      0.01         0.01
  YS02001895YS02001898        0.26      0.26      0.26      0.01         0.01
  YS02001898YS02001901        0.26      0.26      0.29      0.01         0.01
  YS02001901YS02001904        0.28      0.28      0.29      0.01         0.01
  YS02001904YS02001907        0.28      0.28      0.51      0.01         0.01
  YS02001907YS02006553        0.62      0.62      0.67      0.01         0.01
  YS02001910YS02001907        0.33      0.33      0.49      0.01         0.01
  YS02001915YS02001910        0.26      0.26      0.34      0.01         0.01
  YS02001918YS02001915        0.19      0.19      0.26      0.01         0.01
  YS02001920YS02001918        0.19      0.19      0.20      0.01         0.01
  YS02001923YS02001920        0.15      0.15      0.20      0.01         0.01
  YS02001926YS02001923        0.01      0.01      0.02      0.01         0.01
  YS02001929YS02001926        0.01      0.01      0.02      0.01         0.01
  YS02006553YS02006556        0.41      0.41      0.51      0.01         0.01
  YS02006556YS02006558        0.46      0.46      0.52      0.01         0.01
  YS02006558YS02006561        0.23      0.40      0.23      0.58         0.23
  YS02006561YS02001783        0.16      0.16      0.31      0.01         0.01
  YS02163301YS02001633        0.59      0.59      0.63      0.01         0.01
  YS02163601YS02164001        0.57      0.57      0.64      0.06         0.01
  YS02164001YS02001641        0.56      0.57      0.56      0.56         0.49
  YSB1154YSB6556              0.51      0.51      0.63      0.01         0.01
  YSB1171HS02004479           0.42      0.42      0.64      0.01         0.01
  YSB1174YSB1171              0.57      0.57      0.85      0.01         0.01
  YSB6556YSB1171              0.51      0.51      1.01      0.01         0.01
  
  
  ***************
  Pumping Summary
  ***************
  
  ---------------------------------------------------------------------------------------------------------
                                                  Min       Avg       Max     Total     Power    % Time Off
                        Percent   Number of      Flow      Flow      Flow    Volume     Usage    Pump Curve
  Pump                 Utilized   Start-Ups       LPS       LPS       LPS  10^6 ltr     Kw-hr    Low   High
  ---------------------------------------------------------------------------------------------------------
  CC-R1                   13.89           4      0.00    683.00    683.00     2.733     51.04    0.0    7.5
  CC-R2                    9.12           2      0.00    683.00    683.00     1.793     33.75    0.0   11.4
  CC-S1                   96.52           4      0.00     38.37    200.00     0.748      4.52    0.0    0.0
  CC-S2                   95.63           5      0.00     59.22    200.00     1.054      6.53    0.0    0.0
  JK-R1                   12.97           6      0.00    299.85   1000.00     1.063     12.42    0.0    0.0
  JK-R2                   11.01           3      0.00    271.01   1000.00     0.794      9.89    0.0    0.0
  JK-S                    24.88          12      0.00    100.07    300.00     0.902      8.30    0.0    0.0
  XR-1                    97.91           2      0.00     95.00     95.00     2.679      9.63    0.0    0.0
  XR-2                    93.95           2      0.00     95.00     95.00     2.570      8.79    0.0    0.0
  XR-3                     0.00           1      0.00     95.00     95.00     0.000      0.00    0.0    0.0
  XR-4                     0.00           1      0.00     95.00     95.00     0.000      0.00    0.0    0.0
  

  Analysis begun on:  Sun Jun 25 21:03:24 2023
  Analysis ended on:  Sun Jun 25 21:03:36 2023
  Total elapsed time: 00:00:12