
  OWA STORM WATER MANAGEMENT MODEL - VERSION v5.1.14 (OWA 2022-07-31)
  --------------------------------------------------------------

  WARNING 04: minimum elevation drop used for Conduit WS02004404WS02004405
  WARNING 03: negative offset ignored for Link YS02001904YS02001907
  
  *********************************************************
  NOTE: The summary statistics displayed in this report are
  based on results found at every computational time step,  
  not just on results from each reporting time step.
  *********************************************************
  
  ****************
  Analysis Options
  ****************
  Flow Units ............... LPS
  Process Models:
    Rainfall/Runoff ........ YES
    RDII ................... NO
    Snowmelt ............... NO
    Groundwater ............ NO
    Flow Routing ........... YES
    Ponding Allowed ........ NO
    Water Quality .......... NO
  Infiltration Method ...... HORTON
  Flow Routing Method ...... DYNWAVE
  Surcharge Method ......... EXTRAN
  Starting Date ............ 08/28/2015 08:00:00
  Ending Date .............. 08/28/2015 16:00:00
  Antecedent Dry Days ...... 8.0
  Report Time Step ......... 00:01:00
  Wet Time Step ............ 00:01:00
  Dry Time Step ............ 00:01:00
  Routing Time Step ........ 30.00 sec
  Variable Time Step ....... YES
  Maximum Trials ........... 8
  Number of Threads ........ 1
  Head Tolerance ........... 0.001500 m
  
  
  **************************        Volume         Depth
  Runoff Quantity Continuity     hectare-m            mm
  **************************     ---------       -------
  Initial LID Storage ......         0.072         1.184
  Total Precipitation ......         3.319        54.785
  Evaporation Loss .........         0.000         0.000
  Infiltration Loss ........         0.203         3.345
  Surface Runoff ...........         2.510        41.427
  Final Storage ............         0.679        11.213
  Continuity Error (%) .....        -0.030
  
  
  **************************        Volume        Volume
  Flow Routing Continuity        hectare-m      10^6 ltr
  **************************     ---------     ---------
  Dry Weather Inflow .......         0.630         6.296
  Wet Weather Inflow .......         2.509        25.095
  Groundwater Inflow .......         0.000         0.000
  RDII Inflow ..............         0.000         0.000
  External Inflow ..........         0.105         1.045
  External Outflow .........         2.233        22.326
  Flooding Loss ............         1.001        10.009
  Evaporation Loss .........         0.000         0.000
  Exfiltration Loss ........         0.000         0.000
  Initial Stored Volume ....         0.303         3.031
  Final Stored Volume ......         0.320         3.195
  Continuity Error (%) .....        -0.181
  
  
  *************************
  Highest Continuity Errors
  *************************
  Node YS02001583 (-5.69%)
  Node YS02001884 (5.22%)
  Node WS02006256 (3.31%)
  Node HS02004842 (1.64%)
  Node WS02006252 (-1.47%)
  
  
  ***************************
  Time-Step Critical Elements
  ***************************
  Link WS02006280WS02006229 (64.62%)
  Link WS02006238WS02006235 (7.39%)
  Link YS02001791YS02001793 (5.86%)
  Link WS02004404WS02004405 (5.58%)
  Link WS02006252WS02006251 (2.36%)
  
  
  ********************************
  Highest Flow Instability Indexes
  ********************************
  Link WS02006113WS02006111 (29)
  Link WS02004404WS02004405 (26)
  Link WS02006256WS02006235 (24)
  Link WS02006238WS02006235 (22)
  Link WS02006229WS02006228 (22)
  
  
  *************************
  Routing Time Step Summary
  *************************
  Minimum Time Step           :     0.01 sec
  Average Time Step           :     2.84 sec
  Maximum Time Step           :     6.68 sec
  Percent in Steady State     :    -0.00
  Average Iterations per Step :     3.75
  Percent Not Converging      :    18.59
  
  
  ***************************
  Subcatchment Runoff Summary
  ***************************
  
  ------------------------------------------------------------------------------------------------------------------------------
                            Total      Total      Total      Total     Imperv       Perv      Total       Total     Peak  Runoff
                           Precip      Runon       Evap      Infil     Runoff     Runoff     Runoff      Runoff   Runoff   Coeff
  Subcatchment                 mm         mm         mm         mm         mm         mm         mm    10^6 ltr      LPS
  ------------------------------------------------------------------------------------------------------------------------------
  sub0                      54.78       0.00       0.00       1.00      49.70       2.83      52.53        0.04    27.06   0.959
  sub1                      54.78       0.00       0.00       1.52      42.59       3.89      46.47        0.31   168.57   0.848
  sub10                     54.78       0.00       0.00       0.97      39.91       2.59      42.51        0.47   265.05   0.776
  sub11                     54.78       0.00       0.00       0.88      37.09       2.42      39.52        0.46   273.43   0.721
  sub12                     54.78       0.00       0.00       1.55      37.71       4.23      41.94        0.37   231.24   0.766
  sub14                     54.78       0.00       0.00       0.96      35.13       2.60      37.73        0.36   211.49   0.689
  sub15                     54.78       0.00       0.00       4.33      31.58       9.56      41.14        0.71   373.46   0.751
  sub16                     54.78       0.00       0.00       4.61      30.81      10.95      41.76        0.44   252.87   0.762
  sub17                     54.78       0.00       0.00       4.93      34.00      11.48      45.48        0.39   220.06   0.830
  sub2                      54.78       0.00       0.00       6.80      31.13      11.98      43.10        0.40   177.37   0.787
  sub22                     54.78       0.00       0.00       7.65      29.48      15.16      44.64        2.82  1371.37   0.815
  sub23                     54.78       0.00       0.00       5.77      30.36      12.52      42.88        2.05  1081.37   0.783
  sub3                      54.78       0.00       0.00       7.26      30.82      11.35      42.17        0.95   383.04   0.770
  sub4                      54.78       0.00       0.00       1.64      41.93       3.69      45.62        0.95   416.52   0.833
  sub5                      54.78       0.00       0.00       0.86      41.20       2.32      43.52        0.49   273.18   0.794
  sub60                     54.78       0.00       0.00       1.38      36.28       3.70      39.97        0.53   315.64   0.730
  sub61                     54.78       0.00       0.00       2.12      36.25       5.50      41.75        0.77   460.14   0.762
  sub62                     54.78       0.00       0.00       0.94      38.64       2.51      41.15        1.13   633.59   0.751
  sub63                     54.78       0.00       0.00       3.86      31.05       9.14      40.19        0.91   519.73   0.734
  sub64                     54.78       0.00       0.00       1.86      35.35       4.55      39.89        0.96   514.27   0.728
  sub65                     54.78       0.00       0.00       1.70      38.15       4.15      42.30        1.16   603.20   0.772
  sub66                     54.78       0.00       0.00       4.48      30.01       8.12      38.13        1.78   778.88   0.696
  sub67                     54.78       0.00       0.00       0.93      39.62       2.60      42.22        0.79   488.74   0.771
  sub68                     54.78       0.00       0.00       1.62      34.99       4.22      39.21        1.08   629.96   0.716
  sub69                     54.78       0.00       0.00       1.48      36.82       5.03      41.86        1.55   781.49   0.764
  sub7                      54.78       0.00       0.00       1.02      37.65       2.80      40.45        0.14    82.32   0.738
  sub70                     54.78       0.00       0.00       4.91      29.49      10.34      39.83        1.15   452.49   0.727
  sub71                     54.78       0.00       0.00       0.86      35.10       2.27      37.37        0.98   521.50   0.682
  sub72                     54.78       0.00       0.00       0.82      37.91       2.11      40.02        0.55   270.40   0.730
  sub8                      54.78       0.00       0.00       1.00      36.59       2.71      39.30        0.25   148.54   0.717
  sub9                      54.78       0.00       0.00       0.97      35.47       2.63      38.10        0.18   108.24   0.695
  

  ***********************
  LID Performance Summary
  ***********************

  --------------------------------------------------------------------------------------------------------------------
                                         Total      Evap     Infil   Surface    Drain    Initial     Final  Continuity
                                        Inflow      Loss      Loss   Outflow   Outflow   Storage   Storage       Error
  Subcatchment      LID Control             mm        mm        mm        mm        mm        mm        mm           %
  --------------------------------------------------------------------------------------------------------------------
  sub1              GreenRoof            54.78      0.00      0.00      0.00      0.00      7.05     61.89       -0.08
  sub10             GreenRoof            54.78      0.00      0.00      0.00      0.00      7.05     61.89       -0.08
  sub11             GreenRoof            54.78      0.00      0.00      0.00      0.00      7.05     61.89       -0.08
  sub12             GreenRoof            54.78      0.00      0.00      0.00      0.00      7.05     61.89       -0.08
  sub14             GreenRoof            54.78      0.00      0.00      0.00      0.00      7.05     61.89       -0.08
  sub15             GreenRoof            54.78      0.00      0.00      0.00      0.00      7.05     61.89       -0.08
  sub16             GreenRoof            54.78      0.00      0.00      0.00      0.00      7.05     61.89       -0.08
  sub17             GreenRoof            54.78      0.00      0.00      0.00      0.00      7.05     61.89       -0.08
  sub2              GreenRoof            54.78      0.00      0.00      0.00      0.00      7.05     61.89       -0.08
  sub22             GreenRoof            54.78      0.00      0.00      0.00      0.00      7.05     61.89       -0.08
  sub23             GreenRoof            54.78      0.00      0.00      0.00      0.00      7.05     61.89       -0.08
  sub3              GreenRoof            54.78      0.00      0.00      0.00      0.00      7.05     61.89       -0.08
  sub4              GreenRoof            54.78      0.00      0.00      0.00      0.00      7.05     61.89       -0.08
  sub5              GreenRoof            54.78      0.00      0.00      0.00      0.00      7.05     61.89       -0.08
  sub60             GreenRoof            54.78      0.00      0.00      0.00      0.00      7.05     61.89       -0.08
  sub61             GreenRoof            54.78      0.00      0.00      0.00      0.00      7.05     61.89       -0.08
  sub62             GreenRoof            54.78      0.00      0.00      0.00      0.00      7.05     61.89       -0.08
  sub63             GreenRoof            54.78      0.00      0.00      0.00      0.00      7.05     61.89       -0.08
  sub64             GreenRoof            54.78      0.00      0.00      0.00      0.00      7.05     61.89       -0.08
  sub65             GreenRoof            54.78      0.00      0.00      0.00      0.00      7.05     61.89       -0.08
  sub66             GreenRoof            54.78      0.00      0.00      0.00      0.00      7.05     61.89       -0.08
  sub67             GreenRoof            54.78      0.00      0.00      0.00      0.00      7.05     61.89       -0.08
  sub68             GreenRoof            54.78      0.00      0.00      0.00      0.00      7.05     61.89       -0.08
  sub69             GreenRoof            54.78      0.00      0.00      0.00      0.00      7.05     61.89       -0.08
  sub7              GreenRoof            54.78      0.00      0.00      0.00      0.00      7.05     61.89       -0.08
  sub70             GreenRoof            54.78      0.00      0.00      0.00      0.00      7.05     61.89       -0.08
  sub71             GreenRoof            54.78      0.00      0.00      0.00      0.00      7.05     61.89       -0.08
  sub72             GreenRoof            54.78      0.00      0.00      0.00      0.00      7.05     61.89       -0.08
  sub8              GreenRoof            54.78      0.00      0.00      0.00      0.00      7.05     61.89       -0.08
  sub9              GreenRoof            54.78      0.00      0.00      0.00      0.00      7.05     61.89       -0.08
  
  ******************
  Node Depth Summary
  ******************
  
  ---------------------------------------------------------------------------------
                                 Average  Maximum  Maximum  Time of Max    Reported
                                   Depth    Depth      HGL   Occurrence   Max Depth
  Node                 Type       Meters   Meters   Meters  days hr:min      Meters
  ---------------------------------------------------------------------------------
  HS02004478           JUNCTION     0.24     1.56    10.79     0  02:00        1.52
  HS02004479           JUNCTION     0.33     1.69    10.90     0  02:00        1.66
  HS02004480           JUNCTION     0.30     1.67    10.91     0  02:00        1.62
  HS02004770           JUNCTION     0.30     1.42    11.25     0  01:57        1.42
  HS02004777           JUNCTION     0.32     1.48    11.28     0  01:57        1.45
  HS02004785           JUNCTION     0.21     1.44    11.34     0  01:57        1.33
  HS02004788           JUNCTION     0.17     1.42    11.32     0  01:57        1.33
  HS02004792           JUNCTION     0.24     1.60    11.12     0  01:57        1.60
  HS02004799           JUNCTION     0.36     1.76    10.97     0  02:00        1.76
  HS02004802           JUNCTION     0.34     1.78    10.91     0  02:00        1.68
  HS02004807           JUNCTION     0.31     1.92    11.09     0  02:00        1.74
  HS02004817           JUNCTION     0.62     2.44    11.29     0  02:00        2.12
  HS02004824           JUNCTION     0.17     2.01    11.41     0  02:00        1.62
  HS02004830           JUNCTION     0.17     2.03    11.50     0  02:00        1.60
  HS02004837           JUNCTION     0.13     2.00    11.58     0  02:00        1.52
  HS02004842           JUNCTION     0.43     2.22    11.49     0  02:00        1.85
  HS02004848           JUNCTION     0.11     2.05    11.65     0  02:00        1.52
  HS02004852           JUNCTION     0.12     2.09    11.60     0  02:00        1.57
  HS02004856           JUNCTION     0.18     2.07    11.50     0  02:00        1.60
  HS02004862           JUNCTION     0.13     2.00    11.38     0  02:00        1.57
  HS02004870           JUNCTION     0.13     2.10    11.39     0  02:00        1.56
  HS02004876           JUNCTION     0.19     2.12    11.15     0  02:00        1.66
  HS02004881           JUNCTION     0.13     1.84    10.87     0  02:00        1.46
  HS02004901           JUNCTION     0.30     1.42    11.24     0  01:57        1.42
  WS02001211           JUNCTION     0.64     0.80     5.64     0  02:05        0.80
  WS02001212           JUNCTION     0.39     0.57     5.63     0  02:06        0.56
  WS02001213           JUNCTION     0.60     0.86     5.62     0  02:05        0.86
  WS02003059           JUNCTION     0.67     0.93     5.62     0  02:06        0.93
  WS02003060           JUNCTION     0.39     0.68     5.61     0  02:05        0.68
  WS02003066           JUNCTION     0.23     0.45     6.00     0  02:02        0.45
  WS02003067           JUNCTION     0.54     0.88     6.20     0  02:01        0.88
  WS02003069           JUNCTION     0.43     0.77     5.35     0  02:05        0.77
  WS02003072           JUNCTION     0.49     0.80     5.18     0  02:06        0.80
  WS02003073           JUNCTION     0.30     0.51     4.57     0  02:06        0.51
  WS02004138           JUNCTION     0.13     0.14     7.39     0  00:29        0.14
  WS02004139           JUNCTION     0.58     0.74     5.65     0  02:05        0.74
  WS02004401           JUNCTION     0.78     2.02     8.02     0  02:31        1.79
  WS02004402           JUNCTION     0.79     1.97     7.93     0  02:31        1.73
  WS02004403           JUNCTION     0.80     1.88     7.81     0  02:31        1.66
  WS02004404           JUNCTION     0.86     1.87     7.72     0  02:31        1.67
  WS02004405           JUNCTION     0.85     1.79     7.64     0  02:31        1.63
  WS02004406           JUNCTION     0.83     1.56     7.39     0  02:31        1.52
  WS02004407           JUNCTION     0.27     0.88     7.19     0  02:02        0.88
  WS02004409           JUNCTION     0.54     1.36     7.13     0  02:02        1.35
  WS02004410           JUNCTION     0.54     1.27     6.99     0  02:02        1.27
  WS02004411           JUNCTION     0.54     1.18     6.86     0  02:02        1.18
  WS02004412           JUNCTION     0.55     1.09     6.73     0  02:03        1.09
  WS02004413           JUNCTION     0.68     1.14     6.61     0  02:02        1.14
  WS02006109           JUNCTION     1.01     2.64     9.26     0  01:57        2.64
  WS02006110           JUNCTION     0.94     2.37     8.95     0  02:02        2.36
  WS02006111           JUNCTION     0.46     1.71     8.42     0  02:31        1.66
  WS02006112           JUNCTION     1.00     2.38     8.26     0  02:31        2.29
  WS02006113           JUNCTION     0.52     1.77     8.67     0  02:01        1.77
  WS02006115           JUNCTION     0.71     2.05     8.19     0  02:31        1.87
  WS02006116           JUNCTION     0.77     2.08     8.12     0  02:31        1.87
  WS02006228           JUNCTION     1.07     3.02     9.67     0  02:00        3.01
  WS02006229           JUNCTION     1.08     3.21     9.90     0  02:00        3.19
  WS02006230           JUNCTION     1.00     2.65     9.39     0  01:54        2.65
  WS02006231           JUNCTION     0.72     2.19     9.31     0  02:20        2.19
  WS02006232           JUNCTION     0.80     2.18     9.22     0  01:41        2.18
  WS02006234           JUNCTION     0.67     1.96     9.12     0  01:41        1.96
  WS02006235           JUNCTION     0.68     2.00     9.16     0  01:41        1.98
  WS02006238           JUNCTION     0.70     2.06     9.21     0  01:41        1.99
  WS02006239           JUNCTION     0.63     2.03     9.24     0  01:41        1.83
  WS02006240           JUNCTION     0.58     2.10     9.39     0  01:41        1.64
  WS02006242           JUNCTION     0.61     1.55     8.82     0  01:41        1.55
  WS02006243           JUNCTION     0.50     1.48     8.90     0  01:41        1.48
  WS02006245           JUNCTION     0.48     1.56     9.04     0  01:41        1.52
  WS02006247           JUNCTION     0.48     1.47     8.97     0  01:40        1.46
  WS02006248           JUNCTION     0.43     1.10     8.69     0  01:40        1.10
  WS02006249           JUNCTION     0.44     1.09     8.69     0  01:40        1.09
  WS02006251           JUNCTION     0.54     2.21     9.88     0  01:55        2.08
  WS02006252           JUNCTION     0.34     1.50     9.74     0  00:00        1.50
  WS02006253           JUNCTION     0.62     3.23    10.87     0  02:00        2.76
  WS02006256           JUNCTION     0.94     2.35     9.28     0  00:00        2.35
  WS02006280           JUNCTION     0.33     1.72     9.99     0  02:00        1.70
  WS02006284           JUNCTION     0.59     1.92    10.32     0  02:00        1.90
  WS02006287           JUNCTION     0.32     1.71    10.67     0  02:00        1.68
  WSF200               JUNCTION     0.22     0.51     5.75     0  02:05        0.51
  YS02001580           JUNCTION     0.08     1.05     9.59     0  01:57        0.77
  YS02001583           JUNCTION     0.11     1.03     9.52     0  01:57        0.82
  YS02001586           JUNCTION     0.19     1.13     9.30     0  01:57        1.13
  YS02001590           JUNCTION     0.29     1.40     9.26     0  01:57        1.37
  YS02001593           JUNCTION     0.22     1.34     9.20     0  01:57        1.29
  YS02001596           JUNCTION     0.31     1.69     9.10     0  01:57        1.65
  YS02001600           JUNCTION     0.39     1.87     9.00     0  01:57        1.86
  YS02001601           JUNCTION     0.58     2.06     8.90     0  01:56        2.06
  YS02001602           JUNCTION     0.49     1.87     8.77     0  01:57        1.87
  YS02001605           JUNCTION     0.45     1.78     8.68     0  01:57        1.78
  YS02001607           JUNCTION     0.43     1.68     8.53     0  01:57        1.68
  YS02001610           JUNCTION     0.47     1.68     8.48     0  01:57        1.68
  YS02001613           JUNCTION     0.43     1.66     8.50     0  01:57        1.66
  YS02001616           JUNCTION     0.36     1.59     8.50     0  02:00        1.59
  YS02001619           JUNCTION     0.34     1.59     8.52     0  02:00        1.59
  YS02001622           JUNCTION     0.32     1.56     8.47     0  02:00        1.56
  YS02001625           JUNCTION     0.59     1.78     8.38     0  01:57        1.78
  YS02001629           JUNCTION     0.45     1.85     8.40     0  01:57        1.85
  YS02001633           JUNCTION     0.53     2.01     8.46     0  01:57        1.94
  YS02001641           JUNCTION     0.50     1.95     8.39     0  02:02        1.84
  YS02001644           JUNCTION     0.49     1.92     8.35     0  02:02        1.82
  YS02001647           JUNCTION     0.25     1.72     8.33     0  02:03        1.55
  YS02001649           JUNCTION     0.28     1.89     8.28     0  02:03        1.66
  YS02001652           JUNCTION     0.17     1.80     8.40     0  02:03        1.48
  YS02001655           JUNCTION     0.11     1.69     8.54     0  02:03        1.25
  YS02001658           JUNCTION     0.08     1.64     8.78     0  02:03        0.98
  YS02001661           JUNCTION     0.13     0.74     8.15     0  02:03        0.71
  YS02001664           JUNCTION     0.06     0.28     8.20     0  02:02        0.27
  YS02001745           JUNCTION     0.05     0.42     7.94     0  02:02        0.39
  YS02001748           JUNCTION     0.07     0.86     7.93     0  02:03        0.82
  YS02001751           JUNCTION     0.08     1.26     8.14     0  02:03        0.96
  YS02001754           JUNCTION     0.12     1.48     8.09     0  02:03        1.24
  YS02001757           JUNCTION     0.27     1.77     8.03     0  02:03        1.61
  YS02001759           JUNCTION     0.22     1.74     8.10     0  02:03        1.56
  YS02001762           JUNCTION     0.21     1.73     8.13     0  02:03        1.55
  YS02001765           JUNCTION     0.19     1.71     8.16     0  02:01        1.51
  YS02001767           JUNCTION     0.19     1.77     8.25     0  02:01        1.49
  YS02001770           JUNCTION     0.21     1.93     8.42     0  02:00        1.51
  YS02001774           JUNCTION     0.27     1.94     8.36     0  02:01        1.59
  YS02001779           JUNCTION     0.10     1.68     8.37     0  02:01        1.33
  YS02001783           JUNCTION     0.25     1.30     7.45     0  02:00        1.23
  YS02001784           JUNCTION     0.26     1.17     7.24     0  02:00        1.12
  YS02001786           JUNCTION     0.22     0.90     6.93     0  02:00        0.88
  YS02001788           JUNCTION     0.16     0.62     6.60     0  02:01        0.62
  YS02001790           JUNCTION     0.19     0.72     6.36     0  02:02        0.70
  YS02001791           JUNCTION     0.12     0.44     5.91     0  02:02        0.43
  YS02001793           JUNCTION     0.06     0.30     5.13     0  02:08        0.29
  YS02001882           JUNCTION     0.30     1.79     8.51     0  02:00        1.62
  YS02001884           JUNCTION     0.39     1.86     8.47     0  02:00        1.71
  YS02001887           JUNCTION     0.47     1.88     8.41     0  02:00        1.80
  YS02001890           JUNCTION     0.50     1.81     8.32     0  02:00        1.81
  YS02001895           JUNCTION     0.27     1.58     8.32     0  02:00        1.55
  YS02001898           JUNCTION     0.28     1.59     8.32     0  02:00        1.55
  YS02001901           JUNCTION     0.39     1.70     8.30     0  02:00        1.66
  YS02001904           JUNCTION     0.37     1.64     8.27     0  02:00        1.63
  YS02001907           JUNCTION     0.69     1.96     8.25     0  02:00        1.96
  YS02001910           JUNCTION     0.49     1.96     8.47     0  02:01        1.81
  YS02001915           JUNCTION     0.30     1.91     8.63     0  02:01        1.65
  YS02001918           JUNCTION     0.14     1.81     8.88     0  02:01        1.34
  YS02001920           JUNCTION     0.23     2.14     9.15     0  02:01        1.41
  YS02001923           JUNCTION     0.11     2.03     9.29     0  02:01        1.18
  YS02001926           JUNCTION     0.15     1.90     9.35     0  02:01        1.00
  YS02001929           JUNCTION     0.08     1.78     9.47     0  02:01        0.71
  YS02006553           JUNCTION     0.69     1.98     8.26     0  02:00        1.96
  YS02006556           JUNCTION     0.67     1.96     8.27     0  02:00        1.93
  YS02006558           JUNCTION     0.71     2.01     8.27     0  02:00        1.96
  YS02006561           JUNCTION     0.15     0.99     7.65     0  02:00        0.89
  YS02163301           JUNCTION     0.47     1.96     8.48     0  01:57        1.88
  YS02163601           JUNCTION     0.56     2.03     8.43     0  02:02        1.93
  YS02164001           JUNCTION     0.49     1.96     8.42     0  02:02        1.84
  YSB1154              JUNCTION     0.47     1.86    10.92     0  02:00        1.85
  YSB1171              JUNCTION     0.61     1.95    10.85     0  02:00        1.95
  YSB1174              JUNCTION     0.42     1.78    10.89     0  02:00        1.76
  YSB6556              JUNCTION     0.36     1.72    10.88     0  02:00        1.71
  CC-1                 OUTFALL      0.00     0.00     0.00     0  00:00        0.00
  CC-2                 OUTFALL      0.00     0.00     0.00     0  00:00        0.00
  JK-1                 OUTFALL      0.00     0.00     0.00     0  00:00        0.00
  JK-2                 OUTFALL      0.00     0.00     0.00     0  00:00        0.00
  WSC                  OUTFALL      0.30     0.51     1.18     0  02:07        0.51
  CC-storage           STORAGE      0.52     0.80     6.30     0  00:00        0.76
  JK-storage           STORAGE      1.45     4.23     5.03     0  02:13        4.16
  XR-storage           STORAGE      7.87     9.26     7.26     0  08:00        9.26
  
  
  *******************
  Node Inflow Summary
  *******************
  
  -------------------------------------------------------------------------------------------------
                                  Maximum  Maximum                  Lateral       Total        Flow
                                  Lateral    Total  Time of Max      Inflow      Inflow     Balance
                                   Inflow   Inflow   Occurrence      Volume      Volume       Error
  Node                 Type           LPS      LPS  days hr:min    10^6 ltr    10^6 ltr     Percent
  -------------------------------------------------------------------------------------------------
  HS02004478           JUNCTION      0.00  2244.10     0  02:02           0        7.65      -0.012
  HS02004479           JUNCTION      0.00   461.48     0  02:00           0       0.784       0.098
  HS02004480           JUNCTION      0.00  2120.18     0  01:58           0        6.05       0.039
  HS02004770           JUNCTION   1081.37  1081.37     0  02:02        2.05        2.28       0.129
  HS02004777           JUNCTION      0.03   753.61     0  01:56    0.000864        1.81       0.279
  HS02004785           JUNCTION      0.15   771.63     0  01:56     0.00432        1.81       0.012
  HS02004788           JUNCTION    375.13   947.19     0  01:57       0.756        2.57      -0.008
  HS02004792           JUNCTION   1371.65  2090.97     0  02:02        2.83        5.39       0.008
  HS02004799           JUNCTION    211.49  1774.06     0  01:58       0.359        5.28       0.052
  HS02004802           JUNCTION      0.00   712.03     0  02:03           0        1.64       0.244
  HS02004807           JUNCTION    273.43   711.79     0  02:03       0.459        1.68       0.253
  HS02004817           JUNCTION      0.60   448.79     0  02:03      0.0173        1.28       1.317
  HS02004824           JUNCTION    416.57   652.79     0  01:57       0.953        1.52       0.031
  HS02004830           JUNCTION      0.15   666.55     0  01:57     0.00432       0.815       0.125
  HS02004837           JUNCTION    271.40   843.51     0  01:58       0.652        1.12       0.043
  HS02004842           JUNCTION      0.00   838.86     0  01:58           0       0.785       1.664
  HS02004848           JUNCTION    383.04  1094.81     0  01:59       0.949        1.56      -0.008
  HS02004852           JUNCTION      0.00  1087.89     0  01:59           0         1.4      -0.010
  HS02004856           JUNCTION    108.24  1190.75     0  01:59       0.183        1.58       0.032
  HS02004862           JUNCTION    177.57  1291.39     0  02:00       0.407        1.98      -0.023
  HS02004870           JUNCTION    148.54  1357.46     0  01:59       0.251        2.24       0.013
  HS02004876           JUNCTION    168.57  1387.59     0  01:59       0.309        2.55       0.012
  HS02004881           JUNCTION     82.32  1444.23     0  02:00       0.136        2.69       0.001
  HS02004901           JUNCTION    252.87   481.12     0  02:03       0.437       0.639       0.280
  WS02001211           JUNCTION      7.35   208.49     0  02:51       0.212        5.44       0.611
  WS02001212           JUNCTION      0.00   211.56     0  03:08           0        5.41       0.291
  WS02001213           JUNCTION      0.00   217.06     0  03:09           0        5.39       0.331
  WS02003059           JUNCTION      0.00   224.56     0  03:09           0        5.38       0.595
  WS02003060           JUNCTION     16.53  1477.74     0  02:04       0.476          13       0.113
  WS02003066           JUNCTION      0.00  1273.50     0  02:02           0        7.15       0.020
  WS02003067           JUNCTION      0.00  1273.48     0  02:02           0        7.15       0.061
  WS02003069           JUNCTION      0.32  1477.93     0  02:05     0.00922          13       0.119
  WS02003072           JUNCTION      0.00  1477.88     0  02:06           0        12.9       0.161
  WS02003073           JUNCTION      1.82  1479.82     0  02:06      0.0524          13       0.166
  WS02004138           JUNCTION      0.00   380.00     0  00:00           0        5.25       0.053
  WS02004139           JUNCTION      0.32   191.29     0  00:29     0.00924        5.26       0.509
  WS02004401           JUNCTION      0.00  1273.83     0  02:02           0        7.26       0.146
  WS02004402           JUNCTION      0.00  1273.49     0  02:01           0        7.25       0.147
  WS02004403           JUNCTION      0.00  1274.18     0  02:01           0        7.23       0.143
  WS02004404           JUNCTION      0.16  1274.25     0  02:01     0.00467        7.23       0.119
  WS02004405           JUNCTION      0.04  1274.46     0  02:01      0.0011        7.22       0.177
  WS02004406           JUNCTION      0.00  1274.14     0  02:01           0        7.21       0.294
  WS02004407           JUNCTION      0.00  1274.08     0  02:02           0        7.19       0.021
  WS02004409           JUNCTION      0.00  1273.45     0  02:02           0        7.19       0.042
  WS02004410           JUNCTION      0.00  1273.54     0  02:02           0        7.18       0.065
  WS02004411           JUNCTION      0.00  1273.62     0  02:02           0        7.18       0.084
  WS02004412           JUNCTION      0.00  1273.83     0  02:02           0        7.17       0.110
  WS02004413           JUNCTION      0.00  1273.40     0  02:02           0        7.16       0.192
  WS02006109           JUNCTION      1.23  1259.23     0  02:02      0.0354        7.04       0.151
  WS02006110           JUNCTION      0.00  1119.13     0  02:15           0        6.91       0.108
  WS02006111           JUNCTION      0.00  1119.31     0  02:15           0         6.9       0.013
  WS02006112           JUNCTION    220.06  1273.95     0  02:02        0.39        7.29       0.246
  WS02006113           JUNCTION      0.00  1119.19     0  02:15           0         6.9       0.032
  WS02006115           JUNCTION      0.00  1273.37     0  02:02           0        7.27       0.096
  WS02006116           JUNCTION      0.00  1273.71     0  02:01           0        7.26       0.074
  WS02006228           JUNCTION      0.00  1259.94     0  02:02           0        7.01       0.080
  WS02006229           JUNCTION      0.00  2246.14     0  02:02           0        8.84       0.090
  WS02006230           JUNCTION     10.28   995.78     0  02:02       0.296        3.07       0.253
  WS02006231           JUNCTION      0.00   453.33     0  02:02           0        2.13      -0.100
  WS02006232           JUNCTION      0.00   453.50     0  01:59           0        2.12       0.223
  WS02006234           JUNCTION      0.00   453.22     0  02:00           0        2.11      -0.309
  WS02006235           JUNCTION      0.00   416.32     0  02:05           0        2.06       0.312
  WS02006238           JUNCTION      0.00   415.91     0  02:18           0        1.99      -0.194
  WS02006239           JUNCTION      0.00   417.81     0  01:41           0        1.96      -0.196
  WS02006240           JUNCTION      0.00   540.71     0  01:41           0        1.95      -0.074
  WS02006242           JUNCTION      0.00   637.41     0  01:41           0        1.95      -0.083
  WS02006243           JUNCTION      0.00   730.64     0  01:41           0        1.65      -0.376
  WS02006245           JUNCTION      0.00   778.56     0  01:41           0        1.66       0.808
  WS02006247           JUNCTION      0.00   829.48     0  01:40           0        1.66      -0.140
  WS02006248           JUNCTION      0.00   880.25     0  01:40           0        1.87      -0.335
  WS02006249           JUNCTION      0.00  1335.66     0  02:00           0        4.15       0.384
  WS02006251           JUNCTION      0.08  1479.45     0  02:00     0.00222        4.27      -0.012
  WS02006252           JUNCTION      0.00  2147.19     0  02:00           0        2.51      -1.446
  WS02006253           JUNCTION     27.06  1474.84     0  02:00      0.0425        2.84      -0.055
  WS02006256           JUNCTION      0.00  1500.00     0  00:25           0        1.17       3.420
  WS02006280           JUNCTION      0.00  2244.75     0  02:02           0        7.64       0.008
  WS02006284           JUNCTION      0.10  2243.35     0  02:02     0.00275        7.64      -0.004
  WS02006287           JUNCTION      0.00  2243.23     0  02:02           0        7.64       0.010
  WSF200               JUNCTION      0.00  1273.60     0  02:02           0        7.15       0.010
  YS02001580           JUNCTION      0.00   114.31     0  01:57           0     0.00401      -5.510
  YS02001583           JUNCTION      0.00   176.71     0  01:57           0      0.0148      -5.385
  YS02001586           JUNCTION    452.49   452.50     0  02:04        1.15        1.16       0.113
  YS02001590           JUNCTION      0.00   318.05     0  02:00           0        1.07      -0.038
  YS02001593           JUNCTION      0.00   317.96     0  02:01           0        1.07       0.014
  YS02001596           JUNCTION      0.00   317.94     0  02:12           0        1.07       0.007
  YS02001600           JUNCTION      0.00   318.12     0  02:11           0        1.07       0.011
  YS02001601           JUNCTION    781.49  1098.89     0  02:03        1.55        2.62       0.032
  YS02001602           JUNCTION      0.00   518.39     0  01:56           0           2       0.021
  YS02001605           JUNCTION      0.00   517.86     0  01:56           0        1.95       0.021
  YS02001607           JUNCTION      0.00   517.26     0  01:56           0        1.95       0.094
  YS02001610           JUNCTION      0.00   517.55     0  01:56           0        1.94       0.111
  YS02001613           JUNCTION      0.00   517.79     0  01:56           0        1.79       0.091
  YS02001616           JUNCTION      0.00   517.75     0  01:56           0        1.79       0.018
  YS02001619           JUNCTION    778.88   939.77     0  01:59        1.78        3.56      -0.005
  YS02001622           JUNCTION      0.00   941.25     0  01:57           0        3.56      -0.001
  YS02001625           JUNCTION      0.00   946.73     0  01:57           0        3.56       0.252
  YS02001629           JUNCTION      0.00   948.30     0  01:57           0        3.35       0.018
  YS02001633           JUNCTION    603.40  1424.89     0  01:59        1.17        4.52       0.074
  YS02001641           JUNCTION      0.00  1421.93     0  01:59           0        4.52       0.059
  YS02001644           JUNCTION    514.31  1852.40     0  01:59       0.959        5.47       0.059
  YS02001647           JUNCTION      0.00  1850.90     0  01:59           0        5.46       0.001
  YS02001649           JUNCTION      0.00  2157.26     0  02:00           0        6.38       0.003
  YS02001652           JUNCTION      0.00   590.24     0  02:04           0       0.917      -0.102
  YS02001655           JUNCTION      0.15   618.30     0  02:06     0.00443       0.917       0.016
  YS02001658           JUNCTION      0.00   783.55     0  02:03           0       0.912      -0.106
  YS02001661           JUNCTION      0.00   527.42     0  02:02           0       0.912       0.039
  YS02001664           JUNCTION    519.73   519.73     0  02:02       0.912       0.912      -0.006
  YS02001745           JUNCTION    315.65   315.65     0  02:02       0.525       0.525       0.171
  YS02001748           JUNCTION      0.04   428.79     0  02:03      0.0013       0.526      -0.188
  YS02001751           JUNCTION      0.01   440.79     0  02:01    0.000317        0.53       0.012
  YS02001754           JUNCTION      0.26   379.35     0  02:06     0.00749        0.54      -0.322
  YS02001757           JUNCTION      0.00  3275.22     0  02:03           0        8.83       0.013
  YS02001759           JUNCTION    460.18  1181.44     0  02:01       0.767        1.91       0.002
  YS02001762           JUNCTION      0.00   713.52     0  02:01           0        1.15      -0.021
  YS02001765           JUNCTION      0.00   700.73     0  02:01           0        1.15       0.008
  YS02001767           JUNCTION      0.54   690.02     0  02:01      0.0154        1.15       0.003
  YS02001770           JUNCTION    633.74   682.33     0  02:01        1.13        1.17      -0.010
  YS02001774           JUNCTION      0.00   321.22     0  02:01           0      0.0608       1.402
  YS02001779           JUNCTION      0.01   327.73     0  02:01    0.000144      0.0186      -2.459
  YS02001783           JUNCTION      0.00  1150.02     0  02:01           0        3.19       0.006
  YS02001784           JUNCTION      1.06  1151.46     0  02:02      0.0305        3.22       0.016
  YS02001786           JUNCTION      0.06  1151.13     0  02:02     0.00162        3.22       0.019
  YS02001788           JUNCTION      0.07  1151.19     0  02:01     0.00204        3.22       0.009
  YS02001790           JUNCTION      0.15  1161.83     0  02:02     0.00446        3.23       0.019
  YS02001791           JUNCTION      0.00  1280.08     0  02:02           0        3.23      -0.015
  YS02001793           JUNCTION      0.00  1230.91     0  02:02           0        3.23       0.007
  YS02001882           JUNCTION      0.00    64.20     0  01:59           0      0.0128       5.342
  YS02001884           JUNCTION      0.00    78.64     0  01:59           0      0.0486       5.509
  YS02001887           JUNCTION    489.19   490.65     0  02:01       0.798       0.831       0.536
  YS02001890           JUNCTION      0.00   492.19     0  02:00           0       0.791       0.658
  YS02001895           JUNCTION      0.00   486.99     0  02:02           0       0.784       0.183
  YS02001898           JUNCTION      0.00   486.89     0  02:01           0       0.782       0.032
  YS02001901           JUNCTION      0.00   487.58     0  02:01           0       0.785       0.412
  YS02001904           JUNCTION      0.00   487.34     0  02:02           0       0.789       0.366
  YS02001907           JUNCTION      0.00  1466.12     0  02:02           0        2.39       0.761
  YS02001910           JUNCTION      0.00   979.98     0  02:02           0        1.61       0.450
  YS02001915           JUNCTION    521.52   979.67     0  02:02       0.978        1.65       0.104
  YS02001918           JUNCTION      0.00   456.39     0  02:02           0       0.702       0.015
  YS02001920           JUNCTION      2.87   455.15     0  02:02      0.0827       0.684       0.146
  YS02001923           JUNCTION      0.04   414.59     0  02:01     0.00109       0.586      -0.209
  YS02001926           JUNCTION      0.05   654.07     0  02:01      0.0015       0.566      -0.165
  YS02001929           JUNCTION    270.40   500.53     0  02:00        0.55       0.553      -0.052
  YS02006553           JUNCTION      0.00   791.81     0  02:12           0        2.13       0.555
  YS02006556           JUNCTION      0.00   792.11     0  02:12           0        2.14       0.381
  YS02006558           JUNCTION    630.84  1160.65     0  02:00         1.1        3.22       0.113
  YS02006561           JUNCTION      0.00  1160.36     0  02:00           0        3.19      -0.004
  YS02163301           JUNCTION      0.00   937.79     0  02:15           0        3.35       0.045
  YS02163601           JUNCTION      0.11  1423.43     0  01:59     0.00317        4.52       0.106
  YS02164001           JUNCTION      0.00  1421.81     0  01:59           0        4.52       0.048
  YSB1154              JUNCTION    273.18   273.18     0  02:02       0.493       0.494       0.289
  YSB1171              JUNCTION      0.00   502.60     0  02:02           0       0.867       0.735
  YSB1174              JUNCTION    231.24   231.24     0  02:01       0.367       0.367       0.337
  YSB6556              JUNCTION      0.00   273.17     0  02:02           0       0.495       0.239
  CC-1                 OUTFALL       0.00  3415.00     0  00:05           0        3.25       0.000
  CC-2                 OUTFALL       0.00  3415.00     0  01:35           0        3.94       0.000
  JK-1                 OUTFALL       0.00  5000.00     0  01:40           0        1.71       0.000
  JK-2                 OUTFALL       0.00  5000.00     0  01:40           0       0.474       0.000
  WSC                  OUTFALL       0.00  1480.04     0  02:07           0          13       0.000
  CC-storage           STORAGE       0.00  3279.93     0  02:03           0        11.1      -0.178
  JK-storage           STORAGE       0.00  1386.13     0  02:10           0        3.38      -0.570
  XR-storage           STORAGE     200.00   200.00     0  00:00        5.76        6.36       0.001
  
  
  **********************
  Node Surcharge Summary
  **********************
  
  Surcharging occurs when water rises above the top of the highest conduit.
  ---------------------------------------------------------------------
                                               Max. Height   Min. Depth
                                   Hours       Above Crown    Below Rim
  Node                 Type      Surcharged         Meters       Meters
  ---------------------------------------------------------------------
  HS02004478           JUNCTION        0.34          0.639        0.301
  HS02004479           JUNCTION        0.47          0.892        0.158
  HS02004480           JUNCTION        0.52          0.961        0.139
  HS02004770           JUNCTION        0.43          0.720        0.000
  HS02004777           JUNCTION        0.44          0.780        0.000
  HS02004785           JUNCTION        0.38          0.744        0.046
  HS02004788           JUNCTION        0.37          0.720        0.000
  HS02004792           JUNCTION        0.49          0.900        0.000
  HS02004799           JUNCTION        0.62          1.060        0.000
  HS02004802           JUNCTION        0.53          1.074        0.136
  HS02004807           JUNCTION        0.50          1.220        0.000
  HS02004817           JUNCTION        1.12          1.740        0.000
  HS02004824           JUNCTION        0.36          1.310        0.000
  HS02004830           JUNCTION        0.33          1.330        0.000
  HS02004837           JUNCTION        0.30          1.297        0.043
  HS02004842           JUNCTION        0.43          1.520        0.000
  HS02004848           JUNCTION        0.27          1.354        0.016
  HS02004852           JUNCTION        0.27          1.387        0.033
  HS02004856           JUNCTION        0.25          1.300        0.000
  HS02004862           JUNCTION        0.27          1.300        0.000
  HS02004870           JUNCTION        0.28          1.400        0.000
  HS02004876           JUNCTION        0.41          1.424        0.136
  HS02004881           JUNCTION        0.35          1.143        0.307
  HS02004901           JUNCTION        0.44          0.720        0.000
  WS02004401           JUNCTION        1.40          1.020        0.640
  WS02004402           JUNCTION        1.43          0.966        0.774
  WS02004403           JUNCTION        1.43          0.877        1.153
  WS02004404           JUNCTION        1.49          0.866        1.914
  WS02004405           JUNCTION        1.48          0.785        2.015
  WS02004406           JUNCTION        1.47          0.557        1.893
  WS02004409           JUNCTION        0.87          0.357        2.003
  WS02004410           JUNCTION        0.81          0.271        2.269
  WS02004411           JUNCTION        0.74          0.185        2.345
  WS02004412           JUNCTION        0.64          0.090        2.220
  WS02004413           JUNCTION        1.20          0.136        2.064
  WS02006109           JUNCTION        1.75          1.820        0.000
  WS02006110           JUNCTION        1.58          1.458        0.392
  WS02006111           JUNCTION        1.12          0.901        0.969
  WS02006112           JUNCTION        1.62          1.378        0.302
  WS02006113           JUNCTION        1.13          0.975        0.955
  WS02006115           JUNCTION        1.34          1.044        1.206
  WS02006116           JUNCTION        1.35          1.022        1.268
  WS02006228           JUNCTION        1.75          2.186        0.014
  WS02006229           JUNCTION        0.76          1.026        0.044
  WS02006230           JUNCTION        1.46          1.570        0.000
  WS02006231           JUNCTION        1.47          1.480        0.050
  WS02006232           JUNCTION        1.58          1.480        0.000
  WS02006234           JUNCTION        1.47          1.240        0.000
  WS02006235           JUNCTION        1.48          1.290        0.000
  WS02006238           JUNCTION        1.48          1.344        0.086
  WS02006239           JUNCTION        1.46          1.290        0.000
  WS02006240           JUNCTION        1.44          1.390        0.000
  WS02006242           JUNCTION        1.46          0.820        0.000
  WS02006243           JUNCTION        1.40          0.770        0.000
  WS02006245           JUNCTION        1.38          0.850        0.000
  WS02006247           JUNCTION        1.38          0.760        0.000
  WS02006248           JUNCTION        1.36          0.380        0.000
  WS02006249           JUNCTION        1.37          0.390        0.000
  WS02006251           JUNCTION        1.09          1.180        0.000
  WS02006252           JUNCTION        1.39          1.100        0.000
  WS02006253           JUNCTION        1.19          2.187        0.293
  WS02006256           JUNCTION        6.01          2.050        0.000
  WS02006280           JUNCTION        0.63          0.672        0.108
  WS02006284           JUNCTION        0.55          0.641        0.159
  WS02006287           JUNCTION        0.45          0.714        0.176
  YS02001580           JUNCTION        0.40          0.450        0.000
  YS02001583           JUNCTION        0.41          0.387        0.113
  YS02001586           JUNCTION        0.50          0.510        0.000
  YS02001590           JUNCTION        0.58          0.750        0.000
  YS02001593           JUNCTION        0.57          0.720        0.120
  YS02001596           JUNCTION        0.68          0.955        0.115
  YS02001600           JUNCTION        0.84          1.190        0.000
  YS02001601           JUNCTION        1.28          1.440        0.000
  YS02001602           JUNCTION        1.12          1.270        0.000
  YS02001605           JUNCTION        1.05          1.180        0.000
  YS02001607           JUNCTION        0.51          0.680        0.000
  YS02001610           JUNCTION        0.54          0.680        0.000
  YS02001613           JUNCTION        0.50          0.661        0.039
  YS02001616           JUNCTION        0.45          0.592        0.018
  YS02001619           JUNCTION        0.44          0.587        0.023
  YS02001622           JUNCTION        0.43          0.561        0.059
  YS02001625           JUNCTION        0.63          0.780        0.000
  YS02001629           JUNCTION        0.34          0.470        0.000
  YS02001633           JUNCTION        0.64          0.986        0.074
  YS02001641           JUNCTION        0.52          0.951        0.149
  YS02001644           JUNCTION        0.45          0.920        0.000
  YS02001647           JUNCTION        0.22          0.717        0.183
  YS02001649           JUNCTION        0.26          0.887        0.163
  YS02001652           JUNCTION        0.16          0.773        0.357
  YS02001655           JUNCTION        0.08          0.690        0.510
  YS02001658           JUNCTION        0.01          0.636        0.664
  YS02001751           JUNCTION        0.01          0.260        0.940
  YS02001754           JUNCTION        0.08          0.431        0.719
  YS02001757           JUNCTION        0.24          0.769        0.441
  YS02001759           JUNCTION        0.20          0.736        0.474
  YS02001762           JUNCTION        0.19          0.734        0.416
  YS02001765           JUNCTION        0.17          0.710        0.390
  YS02001767           JUNCTION        0.16          0.765        0.265
  YS02001770           JUNCTION        0.15          0.900        0.020
  YS02001774           JUNCTION        0.19          0.942        0.108
  YS02001779           JUNCTION        0.09          0.680        0.000
  YS02001783           JUNCTION        0.35          0.505        1.095
  YS02001784           JUNCTION        0.33          0.375        1.115
  YS02001786           JUNCTION        0.23          0.102        1.328
  YS02001882           JUNCTION        0.30          0.791        0.039
  YS02001884           JUNCTION        0.31          0.797        0.073
  YS02001887           JUNCTION        0.34          0.826        0.124
  YS02001890           JUNCTION        0.35          0.760        0.000
  YS02001895           JUNCTION        0.29          0.576        0.174
  YS02001898           JUNCTION        0.28          0.557        0.183
  YS02001901           JUNCTION        0.33          0.696        0.174
  YS02001904           JUNCTION        0.32          0.642        0.208
  YS02001907           JUNCTION        0.55          0.950        0.000
  YS02001910           JUNCTION        0.38          0.961        0.139
  YS02001915           JUNCTION        0.30          0.908        0.092
  YS02001918           JUNCTION        0.22          0.810        0.000
  YS02001920           JUNCTION        0.23          1.140        0.000
  YS02001923           JUNCTION        0.01          0.820        0.000
  YS02001926           JUNCTION        0.01          0.900        0.000
  YS02001929           JUNCTION        0.01          0.780        0.000
  YS02006553           JUNCTION        0.56          0.977        0.213
  YS02006556           JUNCTION        0.46          0.923        0.427
  YS02006558           JUNCTION        0.45          0.906        0.494
  YS02006561           JUNCTION        0.19          0.188        0.962
  YS02163301           JUNCTION        0.61          0.964        0.066
  YS02163601           JUNCTION        0.66          1.034        0.046
  YS02164001           JUNCTION        0.54          0.959        0.141
  YSB1154              JUNCTION        0.75          1.157        0.243
  YSB1171              JUNCTION        0.75          1.100        0.000
  YSB1174              JUNCTION        0.65          1.082        0.168
  YSB6556              JUNCTION        0.59          1.016        0.084
  
  
  *********************
  Node Flooding Summary
  *********************
  
  Flooding refers to all water that overflows a node, whether it ponds or not.
  --------------------------------------------------------------------------
                                                             Total   Maximum
                                 Maximum   Time of Max       Flood    Ponded
                        Hours       Rate    Occurrence      Volume     Depth
  Node                 Flooded       LPS   days hr:min    10^6 ltr    Meters
  --------------------------------------------------------------------------
  HS02004770              0.24    532.16      0  02:02       0.269     0.000
  HS02004777              0.01     10.20      0  01:57       0.000     0.000
  HS02004788              0.01    397.55      0  01:57       0.002     0.000
  HS02004792              0.25    946.34      0  02:02       0.470     0.000
  HS02004799              0.04     60.06      0  02:00       0.002     0.000
  HS02004807              0.01     10.40      0  02:00       0.000     0.000
  HS02004817              0.01      5.08      0  02:00       0.000     0.000
  HS02004824              0.01      7.42      0  02:00       0.000     0.000
  HS02004830              0.01      4.23      0  02:00       0.000     0.000
  HS02004842              0.01     48.11      0  02:00       0.000     0.000
  HS02004856              0.01    466.58      0  02:00       0.003     0.000
  HS02004862              0.01    366.87      0  02:00       0.001     0.000
  HS02004870              0.01     81.69      0  02:00       0.000     0.000
  HS02004901              0.32    481.12      0  02:04       0.398     0.000
  WS02006109              0.29    205.87      0  02:02       0.124     0.000
  WS02006230              0.56    542.76      0  02:02       0.666     0.000
  WS02006232              0.14     23.35      0  01:41       0.000     0.000
  WS02006234              0.61    242.23      0  01:41       0.200     0.000
  WS02006235              0.01     33.36      0  01:41       0.000     0.000
  WS02006239              0.01    277.19      0  01:41       0.001     0.000
  WS02006240              0.01    297.72      0  01:41       0.001     0.000
  WS02006242              0.74    431.96      0  01:41       0.304     0.000
  WS02006243              0.01    313.96      0  01:41       0.001     0.000
  WS02006245              0.01    211.42      0  03:05       0.001     0.000
  WS02006247              0.01    197.79      0  01:40       0.001     0.000
  WS02006248              1.08    340.47      0  01:56       1.015     0.000
  WS02006249              1.24   1274.10      0  02:00       3.052     0.000
  WS02006251              0.01    498.15      0  02:55       0.001     0.000
  WS02006252              0.52   2145.68      0  02:00       1.104     0.000
  WS02006256              0.47   1471.59      0  01:50       0.940     0.000
  YS02001580              0.01     90.73      0  01:57       0.000     0.000
  YS02001586              0.29    135.01      0  02:04       0.080     0.000
  YS02001590              0.01      8.47      0  01:57       0.000     0.000
  YS02001600              0.01      2.60      0  01:57       0.000     0.000
  YS02001601              0.43    701.09      0  02:03       0.620     0.000
  YS02001602              0.27     61.98      0  02:02       0.053     0.000
  YS02001605              0.01      3.45      0  01:57       0.000     0.000
  YS02001607              0.01      4.43      0  01:57       0.000     0.000
  YS02001610              0.22    280.88      0  02:05       0.157     0.000
  YS02001625              0.18    609.24      0  02:03       0.202     0.000
  YS02001629              0.02     89.48      0  01:57       0.001     0.000
  YS02001644              0.01     17.16      0  02:02       0.000     0.000
  YS02001779              0.01    228.68      0  02:01       0.001     0.000
  YS02001890              0.02     62.96      0  02:00       0.002     0.000
  YS02001907              0.17    947.73      0  02:02       0.250     0.000
  YS02001918              0.01    166.50      0  02:01       0.002     0.000
  YS02001920              0.01     24.58      0  02:01       0.000     0.000
  YS02001923              0.01    101.61      0  02:01       0.000     0.000
  YS02001926              0.01    112.67      0  02:01       0.001     0.000
  YS02001929              0.01    213.29      0  02:01       0.001     0.000
  YSB1171                 0.12    316.55      0  02:02       0.085     0.000
  
  
  **********************
  Storage Volume Summary
  **********************
  
  --------------------------------------------------------------------------------------------------
                         Average     Avg  Evap Exfil       Maximum     Max    Time of Max    Maximum
                          Volume    Pcnt  Pcnt  Pcnt        Volume    Pcnt     Occurrence    Outflow
  Storage Unit           1000 m3    Full  Loss  Loss       1000 m3    Full    days hr:min        LPS
  --------------------------------------------------------------------------------------------------
  CC-storage               1.460      23     0     0         2.229      35       0  00:00    8830.00
  JK-storage               0.073      25     0     0         0.213      73       0  02:13   11500.00
  XR-storage               0.945      66     0     0         1.111      77       0  08:00     380.00
  
  
  ***********************
  Outfall Loading Summary
  ***********************
  
  -----------------------------------------------------------
                         Flow       Avg       Max       Total
                         Freq      Flow      Flow      Volume
  Outfall Node           Pcnt       LPS       LPS    10^6 ltr
  -----------------------------------------------------------
  CC-1                   6.25   3027.18   3415.00       3.251
  CC-2                   7.59   3095.68   3415.00       3.943
  JK-1                   6.58   1497.01   5000.00       1.707
  JK-2                   0.70   3816.90   5000.00       0.474
  WSC                   99.94    629.96   1480.04      12.952
  -----------------------------------------------------------
  System                24.21  12066.72   1480.04      22.326
  
  
  ********************
  Link Flow Summary
  ********************
  
  -----------------------------------------------------------------------------
                                 Maximum  Time of Max   Maximum    Max/    Max/
                                  |Flow|   Occurrence   |Veloc|    Full    Full
  Link                 Type          LPS  days hr:min     m/sec    Flow   Depth
  -----------------------------------------------------------------------------
  1                    CONDUIT   1480.04     0  02:07      3.68    0.52    0.51
  HS02004478WS02006287 CONDUIT   2243.23     0  02:02      2.60    0.63    1.00
  HS02004479HS02004480 CONDUIT    460.57     0  02:00      0.66    0.44    1.00
  HS02004480HS02004478 CONDUIT   2120.01     0  01:58      3.03    8.93    1.00
  HS02004770HS02004777 CONDUIT    753.58     0  01:56      1.08    1.38    1.00
  HS02004777HS02004785 CONDUIT    771.48     0  01:56      1.15    0.95    1.00
  HS02004785HS02004788 CONDUIT    731.91     0  01:57      1.36    5.52    1.00
  HS02004788HS02004792 CONDUIT    820.90     0  01:57      1.42    0.54    1.00
  HS02004792HS02004799 CONDUIT   1628.49     0  01:58      2.33    1.00    1.00
  HS02004799HS02004480 CONDUIT   1773.43     0  01:58      2.53    2.24    1.00
  HS02004802HS02004478 CONDUIT    711.94     0  02:02      1.02    0.63    1.00
  HS02004807HS02004802 CONDUIT    712.03     0  02:03      1.02    1.36    1.00
  HS02004817HS02004807 CONDUIT    448.11     0  02:03      0.64    0.27    1.00
  HS02004817HS02004824 CONDUIT    448.19     0  02:03      0.64    0.20    1.00
  HS02004824HS02004830 CONDUIT    666.40     0  01:57      0.98    0.87    1.00
  HS02004830HS02004837 CONDUIT    662.81     0  01:58      1.03    0.66    1.00
  HS02004837HS02004842 CONDUIT    838.86     0  01:58      1.20    0.50    1.00
  HS02004842HS02004848 CONDUIT    838.51     0  01:58      1.33    0.49    1.00
  HS02004848HS02004852 CONDUIT   1087.89     0  01:59      1.64    1.23    1.00
  HS02004852HS02004856 CONDUIT   1095.73     0  01:59      1.57    1.25    1.00
  HS02004856HS02004862 CONDUIT   1143.17     0  02:00      1.71    1.14    1.00
  HS02004862HS02004870 CONDUIT   1228.28     0  01:59      1.97    1.33    1.00
  HS02004870HS02004876 CONDUIT   1246.98     0  01:59      1.95    0.83    1.00
  HS02004876HS02004881 CONDUIT   1366.01     0  02:00      2.59   14.53    1.00
  HS02004881HS02006253 CONDUIT   1448.82     0  02:00      2.56    0.28    1.00
  HS02004901HS02004770 CONDUIT    265.62     0  02:11      0.38    1.00    1.00
  WS02001211WS02001212 CONDUIT    211.56     0  03:08      0.54    0.16    0.68
  WS02001212WS02001213 CONDUIT    217.06     0  03:09      1.04    0.33    0.55
  WS02001213WS02003059 CONDUIT    224.56     0  03:09      0.47    0.37    0.89
  WS02003059WS02003060 CONDUIT    233.54     0  03:08      0.67    0.15    0.80
  WS02003060WS02003069 CONDUIT   1477.61     0  02:05      2.08    0.58    0.60
  WS02003066WSF200     CONDUIT   1273.60     0  02:02      3.25    0.22    0.38
  WS02003067WS02003066 CONDUIT   1273.50     0  02:02      1.98    0.41    0.56
  WS02003069WS02003072 CONDUIT   1477.88     0  02:06      1.88    0.71    0.66
  WS02003072WS02003073 CONDUIT   1478.00     0  02:06      2.04    3.19    0.61
  WS02004138WS02004139 CONDUIT    190.97     0  00:29      2.15    0.04    0.41
  WS02004139WS02001211 CONDUIT    201.14     0  02:51      0.54    0.25    0.60
  WS02004401WS02004402 CONDUIT   1273.49     0  02:01      1.62    1.53    1.00
  WS02004402WS02004403 CONDUIT   1274.18     0  02:01      1.62    1.83    1.00
  WS02004403WS02004404 CONDUIT   1274.08     0  02:01      1.62    0.92    1.00
  WS02004404WS02004405 CONDUIT   1274.42     0  02:01      1.62   12.49    1.00
  WS02004405WS02004406 CONDUIT   1274.14     0  02:01      1.62    2.51    1.00
  WS02004406WS02004407 CONDUIT   1274.08     0  02:02      1.69    0.57    0.94
  WS02004407WS02004409 CONDUIT   1273.45     0  02:02      1.85    0.45    0.94
  WS02004409WS02004410 CONDUIT   1273.54     0  02:02      1.62    1.65    1.00
  WS02004410WS02004411 CONDUIT   1273.62     0  02:02      1.62    1.74    1.00
  WS02004411WS02004412 CONDUIT   1273.83     0  02:02      1.62    1.81    1.00
  WS02004412WS02004413 CONDUIT   1273.40     0  02:02      1.62    0.85    1.00
  WS02004413WS02003067 CONDUIT   1273.48     0  02:02      1.98    0.55    0.76
  WS02006109WS02006110 CONDUIT   1119.13     0  02:15      2.23    2.15    1.00
  WS02006110WS02006113 CONDUIT   1119.19     0  02:15      2.23    1.02    1.00
  WS02006111WS02006112 CONDUIT   1118.95     0  02:15      2.23    0.53    1.00
  WS02006112WS02006115 CONDUIT   1273.37     0  02:02      1.62    0.75    1.00
  WS02006113WS02006111 CONDUIT   1119.31     0  02:15      2.63    1.34    1.00
  WS02006115WS02006116 CONDUIT   1273.71     0  02:01      1.62    1.63    1.00
  WS02006116WS02004401 CONDUIT   1273.83     0  02:02      1.62    1.76    1.00
  WS02006228WS02006109 CONDUIT   1258.00     0  02:02      2.50    5.50    1.00
  WS02006229WS02006228 CONDUIT   1259.94     0  02:02      2.51    4.17    1.00
  WS02006230WS02006229 CONDUIT    985.50     0  02:02      2.56   21.93    1.00
  WS02006231WS02006230 CONDUIT    453.33     0  02:02      1.18    6.88    1.00
  WS02006232WS02006231 CONDUIT    453.50     0  01:59      1.18    0.95    1.00
  WS02006234WS02006232 CONDUIT    453.22     0  02:00      1.41    0.92    1.00
  WS02006235WS02006234 CONDUIT    416.32     0  02:05      1.23    4.39    1.00
  WS02006238WS02006235 CONDUIT    415.91     0  02:18      1.45    0.93    1.00
  WS02006239WS02006238 CONDUIT    415.35     0  02:00      1.12    1.33    1.00
  WS02006240WS02006239 CONDUIT    417.81     0  01:41      1.26    1.31    1.00
  WS02006242WS02006240 CONDUIT    540.71     0  01:41      1.41    2.15    1.00
  WS02006243WS02006242 CONDUIT    637.41     0  01:41      1.66    1.36    1.00
  WS02006245WS02006243 CONDUIT    730.64     0  01:41      1.93    2.16    1.00
  WS02006247WS02006245 CONDUIT    778.56     0  01:41      2.09    6.17    1.00
  WS02006248WS02006247 CONDUIT    829.48     0  01:40      2.18    1.81    1.00
  WS02006249WS02006248 CONDUIT    880.25     0  01:40      2.29    4.82    1.00
  WS02006251WS02006249 CONDUIT   1335.66     0  02:00      3.47    3.85    1.00
  WS02006252WS02006251 CONDUIT   1152.47     0  03:20    >50.00    4.23    1.00
  WS02006253WS02006251 CONDUIT   1479.38     0  02:00      3.84    4.44    1.00
  WS02006256WS02006235 CONDUIT    288.93     0  00:00      4.23    3.06    1.00
  WS02006280WS02006229 CONDUIT   2246.14     0  02:02      4.14    0.48    1.00
  WS02006284WS02006280 CONDUIT   2244.75     0  02:02      3.02    0.94    1.00
  WS02006287WS02006284 CONDUIT   2243.26     0  02:02      2.86    1.04    1.00
  WSF200WS02003060     CONDUIT   1273.68     0  02:02      2.32    0.28    0.50
  YS02001580YS02001583 CONDUIT    114.31     0  01:57      0.70    0.44    1.00
  YS02001583YS02001586 CONDUIT    167.75     0  01:57      0.69    0.25    1.00
  YS02001586YS02001590 CONDUIT    318.05     0  02:00      1.27    0.56    1.00
  YS02001590YS02001593 CONDUIT    317.96     0  02:01      1.12    2.00    1.00
  YS02001593YS02001596 CONDUIT    317.94     0  02:12      1.75    0.50    1.00
  YS02001596YS02001600 CONDUIT    318.12     0  02:11      1.21    0.62    1.00
  YS02001600YS02001601 CONDUIT    317.89     0  02:12      1.12    0.55    1.00
  YS02001601YS02001602 CONDUIT    518.39     0  01:56      1.83    1.87    1.00
  YS02001602YS02001605 CONDUIT    517.86     0  01:56      1.83   10.96    1.00
  YS02001605YS02001607 CONDUIT    517.26     0  01:56      1.83    2.84    1.00
  YS02001607YS02001610 CONDUIT    517.55     0  01:56      0.66    0.49    1.00
  YS02001610YS02001613 CONDUIT    517.79     0  01:56      0.66    0.60    1.00
  YS02001613YS02001616 CONDUIT    517.75     0  01:56      0.66    0.44    1.00
  YS02001616YS02001619 CONDUIT    513.92     0  02:22      0.68    0.89    1.00
  YS02001619YS02001622 CONDUIT    941.25     0  01:57      1.20    1.39    1.00
  YS02001622YS02001625 CONDUIT    946.73     0  01:57      1.21    0.51    1.00
  YS02001625YS02001629 CONDUIT    948.30     0  01:57      1.21    0.45    1.00
  YS02001629YS02163301 CONDUIT    937.79     0  02:15      1.19    1.15    1.00
  YS02001633YS02163601 CONDUIT   1423.32     0  01:59      1.81    1.49    1.00
  YS02001641YS02001644 CONDUIT   1422.69     0  01:59      1.81    4.60    1.00
  YS02001644YS02001647 CONDUIT   1850.90     0  01:59      2.37    1.09    1.00
  YS02001647YS02001649 CONDUIT   1867.00     0  02:00      2.41    0.99    1.00
  YS02001649YS02001757 CONDUIT   2166.46     0  02:00      2.76    1.31    1.00
  YS02001652YS02001649 CONDUIT    589.94     0  02:04      0.82    0.29    1.00
  YS02001655YS02001652 CONDUIT    590.24     0  02:04      1.30    0.29    1.00
  YS02001658YS02001655 CONDUIT    618.14     0  02:06      1.94    0.26    1.00
  YS02001661YS02001658 CONDUIT    783.55     0  02:03      2.39    0.31    0.80
  YS02001664YS02001661 CONDUIT    527.42     0  02:02      2.33    0.17    0.51
  YS02001745YS02001748 CONDUIT    428.74     0  02:03      2.21    0.17    0.56
  YS02001748YS02001751 CONDUIT    437.00     0  02:03      1.74    0.22    0.93
  YS02001751YS02001754 CONDUIT    379.09     0  02:06      1.43    0.18    1.00
  YS02001754YS02001757 CONDUIT    372.94     0  02:04      0.50    0.15    1.00
  YS02001757CaochengTiaoxuchi CONDUIT   3279.93     0  02:03      4.79    1.42    0.88
  YS02001759YS02001757 CONDUIT   1187.65     0  02:01      1.51    0.84    1.00
  YS02001762YS02001759 CONDUIT    724.76     0  02:01      0.92    0.83    1.00
  YS02001765YS02001762 CONDUIT    713.52     0  02:01      0.91    0.67    1.00
  YS02001767YS02001765 CONDUIT    700.73     0  02:01      0.89    0.88    1.00
  YS02001770YS02001767 CONDUIT    689.49     0  02:01      0.88    2.73    1.00
  YS02001774YS02001770 CONDUIT    321.22     0  02:01      0.41    0.21    1.00
  YS02001779YS02001774 CONDUIT    327.72     0  02:01      0.42    0.17    1.00
  YS02001783YS02001784 CONDUIT   1150.40     0  02:02      2.29    1.59    1.00
  YS02001784YS02001785 CONDUIT   1151.08     0  02:02      2.29    2.68    1.00
  YS02001786YS02001788 CONDUIT   1151.12     0  02:01      2.46    2.22    0.89
  YS02001788YS02001790 CONDUIT   1161.68     0  02:02      2.71    0.86    0.84
  YS02001790YS02001791 CONDUIT   1280.08     0  02:02      3.41    1.39    0.70
  YS02001791YS02001793 CONDUIT   1230.91     0  02:02      6.76    0.53    0.44
  YS02001793JiankangQianchi CONDUIT   1386.13     0  02:10      2.76    0.11    0.65
  YS02001882YS02001884 CONDUIT     64.20     0  01:59      0.13    0.07    1.00
  YS02001884YS02001887 CONDUIT     78.64     0  01:59      0.10    0.10    1.00
  YS02001887YS02001890 CONDUIT    492.19     0  02:00      0.63    0.84    1.00
  YS02001890YS02001895 CONDUIT    486.99     0  02:02      0.62    0.23    1.00
  YS02001895YS02001898 CONDUIT    486.89     0  02:01      0.62    0.84    1.00
  YS02001898YS02001901 CONDUIT    487.58     0  02:01      0.62    0.31    1.00
  YS02001901YS02001904 CONDUIT    487.34     0  02:02      0.62    0.76    1.00
  YS02001904YS02001907 CONDUIT    487.88     0  02:01      0.62    0.17    1.00
  YS02001907YS02006553 CONDUIT    791.81     0  02:12      0.88    0.93    1.00
  YS02001910YS02001907 CONDUIT    980.10     0  02:02      1.25    0.55    1.00
  YS02001915YS02001910 CONDUIT    979.98     0  02:02      1.25    0.49    1.00
  YS02001918YS02001915 CONDUIT    458.21     0  02:02      0.58    0.25    1.00
  YS02001920YS02001918 CONDUIT    456.39     0  02:02      0.64    0.44    1.00
  YS02001923YS02001920 CONDUIT    452.28     0  02:02      0.72    0.20    1.00
  YS02001926YS02001923 CONDUIT    414.55     0  02:01      0.99    0.59    1.00
  YS02001929YS02001926 CONDUIT    411.74     0  02:01      1.17    0.20    1.00
  YS02006553YS02006556 CONDUIT    792.11     0  02:12      1.01    0.68    1.00
  YS02006556YS02006558 CONDUIT    794.09     0  02:12      1.01    0.63    1.00
  YS02006558YS02006561 CONDUIT   1160.36     0  02:00      4.10    2.56    1.00
  YS02006561YS02001783 CONDUIT   1150.02     0  02:01      2.29    0.60    1.00
  YS02163301YS02001633 CONDUIT    938.15     0  02:15      1.19    0.88    1.00
  YS02163601YS02164001 CONDUIT   1421.81     0  01:59      1.81    1.26    1.00
  YS02164001YS02001641 CONDUIT   1421.93     0  01:59      1.81    1.94    1.00
  YSB1154YSB6556       CONDUIT    273.17     0  02:02      0.71    0.49    1.00
  YSB1171HS02004479    CONDUIT    461.48     0  02:00      0.92    0.31    1.00
  YSB1174YSB1171       CONDUIT    231.54     0  02:01      0.60    0.35    1.00
  YSB6556YSB1171       CONDUIT    273.93     0  02:02      0.71    0.28    1.00
  CC-R1                PUMP      3415.00     0  00:05              5.00
  CC-R2                PUMP      3415.00     0  01:35              5.00
  CC-S1                PUMP      1000.00     0  01:10              5.00
  CC-S2                PUMP      1000.00     0  01:10              5.00
  JK-R1                PUMP      5000.00     0  01:40              5.00
  JK-R2                PUMP      5000.00     0  01:40              5.00
  JK-S                 PUMP      1500.00     0  00:25              5.00
  XR-1                 PUMP        95.00     0  00:00              1.00
  XR-2                 PUMP        95.00     0  00:00              1.00
  XR-3                 PUMP        95.00     0  00:00              1.00
  XR-4                 PUMP        95.00     0  00:00              1.00
  
  
  ***************************
  Flow Classification Summary
  ***************************
  
  -------------------------------------------------------------------------------------
                      Adjusted    ---------- Fraction of Time in Flow Class ---------- 
                       /Actual         Up    Down  Sub   Sup   Up    Down  Norm  Inlet 
  Conduit               Length    Dry  Dry   Dry   Crit  Crit  Crit  Crit  Ltd   Ctrl  
  -------------------------------------------------------------------------------------
  1                       1.00   0.00  0.00  0.00  0.00  1.00  0.00  0.00  0.34  0.00
  HS02004478WS02006287    1.00   0.10  0.00  0.00  0.58  0.32  0.00  0.00  0.60  0.00
  HS02004479HS02004480    1.00   0.04  0.00  0.00  0.96  0.00  0.00  0.00  0.11  0.00
  HS02004480HS02004478    1.00   0.08  0.00  0.00  0.51  0.00  0.00  0.40  0.00  0.00
  HS02004770HS02004777    1.00   0.00  0.08  0.00  0.92  0.00  0.00  0.00  0.03  0.00
  HS02004777HS02004785    1.00   0.00  0.00  0.00  1.00  0.00  0.00  0.00  0.12  0.00
  HS02004785HS02004788    1.00   0.00  0.00  0.00  1.00  0.00  0.00  0.00  0.00  0.00
  HS02004788HS02004792    1.00   0.00  0.00  0.00  0.99  0.01  0.00  0.00  0.92  0.00
  HS02004792HS02004799    1.00   0.00  0.00  0.00  0.99  0.01  0.00  0.00  0.87  0.00
  HS02004799HS02004480    1.00   0.00  0.03  0.00  0.90  0.00  0.06  0.00  0.00  0.00
  HS02004802HS02004478    1.00   0.08  0.00  0.00  0.91  0.00  0.00  0.00  0.02  0.00
  HS02004807HS02004802    1.00   0.08  0.00  0.00  0.91  0.00  0.00  0.01  0.00  0.00
  HS02004817HS02004807    1.00   0.00  0.08  0.00  0.92  0.00  0.00  0.00  0.01  0.00
  HS02004817HS02004824    1.00   0.00  0.00  0.00  1.00  0.00  0.00  0.00  0.82  0.00
  HS02004824HS02004830    1.00   0.00  0.00  0.00  1.00  0.00  0.00  0.00  0.01  0.00
  HS02004830HS02004837    1.00   0.00  0.00  0.00  1.00  0.00  0.00  0.00  0.90  0.00
  HS02004837HS02004842    1.00   0.00  0.00  0.00  0.99  0.01  0.00  0.00  0.11  0.00
  HS02004842HS02004848    1.00   0.00  0.08  0.00  0.92  0.00  0.00  0.00  0.58  0.00
  HS02004848HS02004852    1.00   0.08  0.00  0.00  0.92  0.00  0.00  0.00  0.72  0.00
  HS02004852HS02004856    1.00   0.08  0.01  0.00  0.91  0.00  0.00  0.00  0.68  0.00
  HS02004856HS02004862    1.00   0.00  0.10  0.00  0.90  0.00  0.00  0.00  0.76  0.00
  HS02004862HS02004870    1.00   0.00  0.00  0.00  1.00  0.00  0.00  0.00  0.03  0.00
  HS02004870HS02004876    1.00   0.01  0.00  0.00  0.99  0.01  0.00  0.00  0.87  0.00
  HS02004876HS02004881    1.00   0.02  0.00  0.00  0.77  0.21  0.00  0.00  0.00  0.00
  HS02004881HS02006253    1.00   0.04  0.01  0.00  0.36  0.03  0.00  0.57  0.11  0.00
  HS02004901HS02004770    1.00   0.08  0.00  0.00  0.92  0.00  0.00  0.00  0.00  0.00
  WS02001211WS02001212    1.00   0.00  0.03  0.00  0.97  0.00  0.00  0.00  0.00  0.00
  WS02001212WS02001213    1.00   0.03  0.00  0.00  0.44  0.00  0.53  0.00  0.00  0.00
  WS02001213WS02003059    1.00   0.00  0.00  0.00  0.99  0.00  0.00  0.00  0.00  0.00
  WS02003059WS02003060    1.00   0.00  0.00  0.00  1.00  0.00  0.00  0.00  0.03  0.00
  WS02003060WS02003069    1.00   0.00  0.00  0.00  0.99  0.01  0.00  0.00  0.57  0.00
  WS02003066WSF200        1.00   0.08  0.00  0.00  0.00  0.92  0.00  0.00  0.65  0.00
  WS02003067WS02003066    1.00   0.07  0.01  0.00  0.92  0.00  0.00  0.00  0.00  0.00
  WS02003069WS02003072    1.00   0.00  0.00  0.00  1.00  0.00  0.00  0.00  0.70  0.00
  WS02003072WS02003073    1.00   0.00  0.00  0.00  0.00  0.00  0.00  1.00  0.00  0.00
  WS02004138WS02004139    1.00   0.00  0.01  0.00  0.97  0.01  0.00  0.02  0.98  0.00
  WS02004139WS02001211    1.00   0.00  0.00  0.00  0.99  0.00  0.00  0.00  0.00  0.00
  WS02004401WS02004402    1.00   0.03  0.00  0.00  0.97  0.00  0.00  0.00  0.00  0.00
  WS02004402WS02004403    1.00   0.03  0.00  0.00  0.97  0.00  0.00  0.00  0.00  0.00
  WS02004403WS02004404    1.00   0.00  0.03  0.00  0.97  0.00  0.00  0.00  0.00  0.00
  WS02004404WS02004405    1.00   0.00  0.00  0.00  1.00  0.00  0.00  0.00  0.00  0.00
  WS02004405WS02004406    1.00   0.00  0.00  0.00  1.00  0.00  0.00  0.00  0.00  0.00
  WS02004406WS02004407    1.00   0.00  0.04  0.00  0.96  0.00  0.00  0.00  0.00  0.00
  WS02004407WS02004409    1.00   0.04  0.00  0.00  0.95  0.00  0.00  0.00  0.84  0.00
  WS02004409WS02004410    1.00   0.04  0.00  0.00  0.96  0.00  0.00  0.00  0.03  0.00
  WS02004410WS02004411    1.00   0.05  0.00  0.00  0.95  0.00  0.00  0.00  0.01  0.00
  WS02004411WS02004412    1.00   0.05  0.00  0.00  0.95  0.00  0.00  0.00  0.00  0.00
  WS02004412WS02004413    1.00   0.05  0.00  0.00  0.95  0.00  0.00  0.00  0.01  0.00
  WS02004413WS02003067    1.00   0.05  0.02  0.00  0.00  0.00  0.93  0.00  0.00  0.00
  WS02006109WS02006110    1.00   0.00  0.01  0.00  0.98  0.00  0.01  0.00  0.00  0.00
  WS02006110WS02006113    1.00   0.01  0.01  0.00  0.98  0.00  0.00  0.00  0.00  0.00
  WS02006111WS02006112    1.00   0.02  0.00  0.00  0.97  0.00  0.00  0.00  0.79  0.00
  WS02006112WS02006115    1.00   0.02  0.00  0.00  0.97  0.00  0.00  0.00  0.00  0.00
  WS02006113WS02006111    1.00   0.02  0.00  0.00  0.32  0.66  0.00  0.00  0.06  0.00
  WS02006115WS02006116    1.00   0.03  0.00  0.00  0.97  0.00  0.00  0.01  0.00  0.00
  WS02006116WS02004401    1.00   0.03  0.00  0.00  0.97  0.00  0.00  0.00  0.00  0.00
  WS02006228WS02006109    1.00   0.00  0.00  0.00  1.00  0.00  0.00  0.00  0.00  0.00
  WS02006229WS02006228    1.00   0.00  0.00  0.00  0.99  0.00  0.00  0.01  0.00  0.00
  WS02006230WS02006229    1.00   0.00  0.00  0.00  0.98  0.00  0.00  0.02  0.03  0.00
  WS02006231WS02006230    1.00   0.00  0.00  0.00  0.48  0.00  0.52  0.00  0.00  0.00
  WS02006232WS02006231    1.00   0.00  0.00  0.00  0.99  0.00  0.00  0.00  0.00  0.00
  WS02006234WS02006232    1.00   0.00  0.00  0.00  1.00  0.00  0.00  0.00  0.10  0.00
  WS02006235WS02006234    1.00   0.00  0.00  0.00  0.85  0.00  0.15  0.00  0.00  0.00
  WS02006238WS02006235    1.00   0.00  0.00  0.00  1.00  0.00  0.00  0.00  0.00  0.00
  WS02006239WS02006238    1.00   0.00  0.00  0.00  1.00  0.00  0.00  0.00  0.25  0.00
  WS02006240WS02006239    1.00   0.00  0.00  0.00  0.66  0.00  0.00  0.34  0.02  0.00
  WS02006242WS02006240    1.00   0.00  0.00  0.00  0.99  0.00  0.01  0.00  0.00  0.00
  WS02006243WS02006242    1.00   0.00  0.00  0.00  0.99  0.00  0.00  0.00  0.70  0.00
[...]
  WS02006256WS02006235    1.00   0.00  0.00  0.00  0.99  0.01  0.00  0.00  0.00  0.00
  WS02006280WS02006229    1.00   0.09  0.00  0.00  0.25  0.06  0.00  0.60  0.00  0.00
  WS02006284WS02006280    1.00   0.09  0.00  0.00  0.17  0.01  0.00  0.73  0.00  0.00
  WS02006287WS02006284    1.00   0.07  0.03  0.00  0.48  0.42  0.00  0.00  0.66  0.00
  WSF200WS02003060        1.00   0.00  0.08  0.00  0.51  0.41  0.00  0.00  0.63  0.00
  YS02001580YS02001583    1.00   0.23  0.46  0.00  0.31  0.00  0.00  0.00  0.69  0.00
  YS02001583YS02001586    1.00   0.32  0.30  0.00  0.38  0.00  0.00  0.00  0.69  0.00
  YS02001586YS02001590    1.00   0.08  0.00  0.00  0.60  0.03  0.00  0.29  0.35  0.00
  YS02001590YS02001593    1.00   0.08  0.00  0.00  0.16  0.00  0.75  0.00  0.00  0.00
  YS02001593YS02001596    1.00   0.09  0.00  0.00  0.20  0.02  0.00  0.70  0.02  0.00
  YS02001596YS02001600    1.00   0.09  0.00  0.00  0.34  0.03  0.00  0.55  0.06  0.00
  YS02001600YS02001601    1.00   0.08  0.00  0.00  0.91  0.00  0.00  0.00  0.62  0.00
  YS02001601YS02001602    1.00   0.08  0.00  0.00  0.91  0.00  0.00  0.00  0.00  0.00
  YS02001602YS02001605    1.00   0.09  0.00  0.00  0.91  0.00  0.00  0.00  0.00  0.00
  YS02001605YS02001607    1.00   0.09  0.00  0.00  0.91  0.00  0.00  0.00  0.00  0.00
  YS02001607YS02001610    1.00   0.08  0.00  0.00  0.91  0.00  0.00  0.00  0.01  0.00
  YS02001610YS02001613    1.00   0.08  0.00  0.00  0.92  0.00  0.00  0.00  0.00  0.00
  YS02001613YS02001616    1.00   0.08  0.00  0.00  0.92  0.00  0.00  0.00  0.00  0.00
  YS02001616YS02001619    1.00   0.08  0.00  0.00  0.92  0.00  0.00  0.00  0.00  0.00
  YS02001619YS02001622    1.00   0.08  0.00  0.00  0.92  0.00  0.00  0.00  0.35  0.00
  YS02001622YS02001625    1.00   0.08  0.00  0.00  0.92  0.00  0.00  0.00  0.04  0.00
  YS02001625YS02001629    1.00   0.08  0.03  0.00  0.25  0.00  0.64  0.00  0.00  0.00
  YS02001629YS02163301    1.00   0.09  0.01  0.00  0.90  0.00  0.00  0.00  0.00  0.00
  YS02001633YS02163601    1.00   0.00  0.01  0.00  0.99  0.00  0.00  0.00  0.15  0.00
  YS02001641YS02001644    1.00   0.00  0.01  0.00  0.99  0.00  0.00  0.00  0.00  0.00
  YS02001644YS02001647    1.00   0.00  0.10  0.00  0.89  0.00  0.00  0.00  0.00  0.00
  YS02001647YS02001649    1.00   0.00  0.10  0.00  0.48  0.42  0.00  0.00  0.59  0.00
  YS02001649YS02001757    1.00   0.00  0.00  0.00  0.50  0.50  0.00  0.00  0.61  0.00
  YS02001652YS02001649    1.00   0.00  0.00  0.00  0.97  0.03  0.00  0.00  0.76  0.00
  YS02001655YS02001652    1.00   0.00  0.00  0.00  0.27  0.05  0.00  0.68  0.10  0.00
  YS02001658YS02001655    1.00   0.00  0.09  0.00  0.47  0.44  0.00  0.00  0.76  0.00
  YS02001661YS02001658    1.00   0.09  0.00  0.00  0.34  0.58  0.00  0.00  0.73  0.00
  YS02001664YS02001661    1.00   0.08  0.00  0.00  0.67  0.25  0.00  0.00  0.86  0.00
  YS02001745YS02001748    1.00   0.00  0.00  0.00  0.03  0.01  0.00  0.96  0.02  0.00
  YS02001748YS02001751    1.00   0.00  0.00  0.00  0.58  0.42  0.00  0.00  0.83  0.00
  YS02001751YS02001754    1.00   0.00  0.00  0.00  0.16  0.02  0.00  0.82  0.04  0.00
  YS02001754YS02001757    1.00   0.00  0.00  0.00  1.00  0.00  0.00  0.00  0.89  0.00
  YS02001757CaochengTiaoxuchi    1.00   0.00  0.00  0.00  0.70  0.30  0.00  0.00  0.93  0.00
  YS02001759YS02001757    1.00   0.00  0.00  0.00  1.00  0.00  0.00  0.00  0.63  0.00
  YS02001762YS02001759    1.00   0.00  0.00  0.00  1.00  0.00  0.00  0.00  0.04  0.00
  YS02001765YS02001762    1.00   0.00  0.00  0.00  1.00  0.00  0.00  0.00  0.74  0.00
  YS02001767YS02001765    1.00   0.00  0.00  0.00  1.00  0.00  0.00  0.00  0.00  0.00
  YS02001770YS02001767    1.00   0.00  0.00  0.00  1.00  0.00  0.00  0.00  0.00  0.00
  YS02001774YS02001770    1.00   0.00  0.08  0.00  0.74  0.00  0.17  0.00  0.03  0.00
  YS02001779YS02001774    1.00   0.00  0.00  0.00  1.00  0.00  0.00  0.00  0.80  0.00
  YS02001783YS02001784    1.00   0.00  0.12  0.00  0.88  0.00  0.00  0.00  0.57  0.00
  YS02001784YS02001785    1.00   0.00  0.00  0.00  1.00  0.00  0.00  0.00  0.17  0.00
  YS02001786YS02001788    1.00   0.00  0.00  0.00  0.61  0.39  0.00  0.00  0.00  0.00
  YS02001788YS02001790    1.00   0.00  0.00  0.00  0.15  0.85  0.00  0.00  0.82  0.00
  YS02001790YS02001791    1.00   0.00  0.00  0.00  0.01  0.99  0.00  0.00  0.17  0.00
  YS02001791YS02001793    1.00   0.00  0.00  0.00  0.00  1.00  0.00  0.00  0.01  0.00
  YS02001793JiankangQianchi    1.00   0.00  0.00  0.00  0.98  0.02  0.00  0.00  0.97  0.00
  YS02001882YS02001884    1.00   0.09  0.00  0.00  0.90  0.00  0.00  0.00  0.00  0.00
  YS02001884YS02001887    1.00   0.05  0.03  0.00  0.92  0.00  0.00  0.00  0.00  0.00
  YS02001887YS02001890    1.00   0.00  0.00  0.00  0.97  0.00  0.03  0.00  0.00  0.00
  YS02001890YS02001895    1.00   0.00  0.10  0.00  0.90  0.00  0.00  0.00  0.00  0.00
  YS02001895YS02001898    1.00   0.10  0.00  0.00  0.88  0.00  0.02  0.00  0.00  0.00
  YS02001898YS02001901    1.00   0.10  0.00  0.00  0.90  0.00  0.00  0.00  0.01  0.00
  YS02001901YS02001904    1.00   0.10  0.00  0.00  0.90  0.00  0.00  0.00  0.00  0.00
  YS02001904YS02001907    1.00   0.00  0.10  0.00  0.90  0.00  0.00  0.00  0.00  0.00
  YS02001907YS02006553    1.00   0.00  0.02  0.00  0.97  0.00  0.00  0.00  0.00  0.00
  YS02001910YS02001907    1.00   0.00  0.00  0.00  0.97  0.00  0.00  0.03  0.12  0.00
  YS02001915YS02001910    1.00   0.00  0.00  0.00  0.97  0.03  0.00  0.00  0.16  0.00
  YS02001918YS02001915    1.00   0.00  0.00  0.00  0.97  0.02  0.00  0.00  0.78  0.00
  YS02001920YS02001918    1.00   0.00  0.01  0.00  0.99  0.00  0.00  0.00  0.00  0.00
  YS02001923YS02001920    1.00   0.00  0.00  0.00  1.00  0.00  0.00  0.00  0.95  0.00
  YS02001926YS02001923    1.00   0.00  0.06  0.00  0.06  0.00  0.88  0.00  0.00  0.00
  YS02001929YS02001926    1.00   0.00  0.08  0.00  0.92  0.00  0.00  0.00  0.84  0.00
  YS02006553YS02006556    1.00   0.01  0.00  0.00  0.99  0.00  0.00  0.00  0.03  0.00
  YS02006556YS02006558    1.00   0.00  0.00  0.00  1.00  0.00  0.00  0.00  0.00  0.00
  YS02006558YS02006561    1.00   0.11  0.00  0.00  0.06  0.83  0.00  0.00  0.19  0.00
  YS02006561YS02001783    1.00   0.11  0.00  0.00  0.11  0.78  0.00  0.00  0.72  0.00
  YS02163301YS02001633    1.00   0.00  0.09  0.00  0.91  0.00  0.00  0.00  0.00  0.00
  YS02163601YS02164001    1.00   0.00  0.06  0.00  0.94  0.00  0.00  0.00  0.00  0.00
  YS02164001YS02001641    1.00   0.01  0.05  0.00  0.94  0.00  0.00  0.00  0.05  0.00
  YSB1154YSB6556          1.00   0.08  0.00  0.00  0.92  0.00  0.00  0.00  0.02  0.00
  YSB1171HS02004479       1.00   0.04  0.00  0.00  0.95  0.00  0.00  0.01  0.10  0.00
  YSB1174YSB1171          1.00   0.04  0.02  0.00  0.93  0.00  0.00  0.00  0.00  0.00
  YSB6556YSB1171          1.00   0.04  0.04  0.00  0.92  0.00  0.00  0.00  0.00  0.00
  
  
  *************************
  Conduit Surcharge Summary
  *************************
  
  ----------------------------------------------------------------------------
                                                           Hours        Hours 
                         --------- Hours Full --------   Above Full   Capacity
  Conduit                Both Ends  Upstream  Dnstream   Normal Flow   Limited
  ----------------------------------------------------------------------------
  HS02004478WS02006287        0.34      0.34      0.52      0.01         0.01
  HS02004479HS02004480        0.53      0.53      0.55      0.01         0.01
  HS02004480HS02004478        0.45      0.52      0.45      1.64         0.45
  HS02004770HS02004777        0.43      0.43      0.44      0.10         0.07
  HS02004777HS02004785        0.38      0.38      0.44      0.01         0.01
  HS02004785HS02004788        0.37      0.38      0.37      1.40         0.36
  HS02004788HS02004792        0.37      0.37      0.49      0.01         0.01
  HS02004792HS02004799        0.49      0.49      0.62      0.01         0.01
  HS02004799HS02004480        0.52      0.52      0.62      0.73         0.01
  HS02004802HS02004478        0.46      0.46      0.54      0.01         0.01
  HS02004807HS02004802        0.50      0.50      0.53      0.10         0.10
  HS02004817HS02004807        0.50      0.50      1.12      0.01         0.01
  HS02004817HS02004824        0.36      0.36      1.12      0.01         0.01
  HS02004824HS02004830        0.33      0.33      0.36      0.01         0.01
  HS02004830HS02004837        0.30      0.30      0.33      0.01         0.01
  HS02004837HS02004842        0.30      0.30      0.43      0.01         0.01
  HS02004842HS02004848        0.27      0.27      0.43      0.01         0.01
  HS02004848HS02004852        0.27      0.27      0.27      0.03         0.01
  HS02004852HS02004856        0.27      0.27      0.28      0.03         0.01
  HS02004856HS02004862        0.25      0.25      0.27      0.02         0.01
  HS02004862HS02004870        0.27      0.27      0.28      0.04         0.05
  HS02004870HS02004876        0.28      0.28      0.41      0.01         0.01
  HS02004876HS02004881        0.35      0.41      0.35      1.36         0.34
  HS02004881HS02006253        0.35      0.35      1.19      0.01         0.01
  HS02004901HS02004770        0.43      0.43      0.44      0.01         0.01
  WS02003072WS02003073        0.01      0.01      0.01      1.97         0.01
  WS02004401WS02004402        1.40      1.40      1.43      1.31         1.28
  WS02004402WS02004403        1.43      1.43      1.43      1.39         1.38
  WS02004403WS02004404        1.43      1.43      1.49      0.01         0.01
  WS02004404WS02004405        1.48      1.49      1.48      2.56         1.48
  WS02004405WS02004406        1.47      1.48      1.47      1.60         1.47
  WS02004406WS02004407        0.01      0.01      1.47      0.01         0.01
  WS02004407WS02004409        0.01      0.01      0.87      0.01         0.01
  WS02004409WS02004410        0.81      0.87      0.81      1.34         0.81
  WS02004410WS02004411        0.74      0.81      0.74      1.37         0.74
  WS02004411WS02004412        0.64      0.74      0.64      1.39         0.64
  WS02004412WS02004413        0.64      0.64      1.20      0.01         0.01
  WS02004413WS02003067        0.01      0.01      1.20      0.01         0.01
  WS02006109WS02006110        1.58      1.58      1.78      1.58         0.01
  WS02006110WS02006113        1.13      1.13      1.78      0.19         0.01
  WS02006111WS02006112        1.12      1.12      1.90      0.01         0.01
  WS02006112WS02006115        1.34      1.34      1.62      0.01         0.01
  WS02006113WS02006111        1.13      1.13      1.13      1.31         1.13
  WS02006115WS02006116        1.35      1.35      1.35      1.35         1.32
  WS02006116WS02004401        1.40      1.40      1.40      1.38         1.36
  WS02006228WS02006109        1.75      1.78      1.75      2.01         1.75
  WS02006229WS02006228        1.75      1.76      1.75      1.89         1.75
  WS02006230WS02006229        1.80      1.80      1.80      2.44         0.82
  WS02006231WS02006230        1.46      1.46      1.47      2.05         0.90
  WS02006232WS02006231        1.47      1.47      1.58      0.01         0.12
  WS02006234WS02006232        1.48      1.48      1.58      0.01         0.01
  WS02006235WS02006234        1.47      1.47      1.48      1.78         0.87
  WS02006238WS02006235        1.48      1.48      1.49      0.01         0.26
  WS02006239WS02006238        1.47      1.48      1.48      0.67         0.02
  WS02006240WS02006239        1.44      1.45      1.46      0.67         0.02
  WS02006242WS02006240        1.44      1.44      1.47      0.86         0.73
  WS02006243WS02006242        1.40      1.40      1.46      0.01         0.01
  WS02006245WS02006243        1.39      1.39      1.40      0.05         0.03
  WS02006247WS02006245        1.38      1.39      1.38      1.55         0.30
  WS02006248WS02006247        1.36      1.37      1.38      0.02         0.02
  WS02006249WS02006248        1.36      1.36      1.37      0.42         0.01
  WS02006251WS02006249        1.36      1.38      1.37      1.00         0.87
  WS02006252WS02006251        1.23      3.40      1.37      0.59         0.01
  WS02006253WS02006251        1.36      1.38      1.39      0.71         0.08
  WS02006256WS02006235        2.13      2.15      5.93      0.13         0.01
  WS02006280WS02006229        0.64      0.64      0.76      0.01         0.01
  WS02006284WS02006280        0.55      0.55      0.63      0.01         0.01
  WS02006287WS02006284        0.45      0.45      0.56      0.14         0.13
  YS02001580YS02001583        0.40      0.40      0.43      0.01         0.01
  YS02001583YS02001586        0.41      0.41      0.50      0.01         0.01
  YS02001586YS02001590        0.51      0.51      0.58      0.01         0.01
  YS02001590YS02001593        0.57      0.57      0.59      0.62         0.01
  YS02001593YS02001596        0.59      0.59      0.68      0.01         0.01
  YS02001596YS02001600        0.73      0.73      0.84      0.01         0.01
  YS02001600YS02001601        0.91      0.91      1.28      0.01         0.01
  YS02001601YS02001602        1.12      1.12      1.34      0.87         0.01
  YS02001602YS02001605        1.05      1.05      1.12      2.08         0.01
  YS02001605YS02001607        1.00      1.05      1.00      1.22         1.00
  YS02001607YS02001610        0.51      0.51      0.54      0.01         0.01
  YS02001610YS02001613        0.50      0.50      0.54      0.01         0.01
  YS02001613YS02001616        0.45      0.45      0.50      0.01         0.01
  YS02001616YS02001619        0.44      0.44      0.45      0.01         0.01
  YS02001619YS02001622        0.43      0.44      0.43      0.62         0.42
  YS02001622YS02001625        0.43      0.43      0.63      0.01         0.01
  YS02001625YS02001629        0.34      0.34      0.63      0.01         0.01
  YS02001629YS02163301        0.61      0.61      0.61      0.32         0.32
  YS02001633YS02163601        0.64      0.64      0.66      0.47         0.47
  YS02001641YS02001644        0.45      0.52      0.45      1.38         0.45
  YS02001644YS02001647        0.22      0.22      0.45      0.05         0.01
  YS02001647YS02001649        0.22      0.22      0.26      0.01         0.01
  YS02001649YS02001757        0.24      0.26      0.24      0.35         0.23
  YS02001652YS02001649        0.17      0.17      0.26      0.01         0.01
  YS02001655YS02001652        0.08      0.08      0.16      0.01         0.01
  YS02001658YS02001655        0.01      0.01      0.08      0.01         0.01
  YS02001661YS02001658        0.01      0.01      0.01      0.01         0.01
  YS02001748YS02001751        0.01      0.01      0.01      0.01         0.01
  YS02001751YS02001754        0.01      0.01      0.08      0.01         0.01
  YS02001754YS02001757        0.10      0.10      0.24      0.01         0.01
  YS02001757CaochengTiaoxuchi        0.01      0.24      0.01      0.34         0.01
  YS02001759YS02001757        0.20      0.20      0.24      0.01         0.01
  YS02001762YS02001759        0.19      0.19      0.20      0.01         0.02
  YS02001765YS02001762        0.17      0.17      0.19      0.01         0.01
  YS02001767YS02001765        0.16      0.16      0.17      0.01         0.02
  YS02001770YS02001767        0.16      0.16      0.16      0.40         0.15
  YS02001774YS02001770        0.15      0.15      0.19      0.01         0.01
  YS02001779YS02001774        0.09      0.09      0.19      0.01         0.01
  YS02001783YS02001784        0.33      0.35      0.33      0.48         0.33
  YS02001784YS02001785        0.23      0.33      0.23      0.70         0.23
  YS02001786YS02001788        0.01      0.23      0.01      0.58         0.01
  YS02001790YS02001791        0.01      0.01      0.01      0.31         0.01
  YS02001793JiankangQianchi        0.01      0.01      3.60      0.01         0.01
  YS02001882YS02001884        0.30      0.30      0.31      0.01         0.01
  YS02001884YS02001887        0.33      0.33      0.34      0.01         0.01
  YS02001887YS02001890        0.35      0.35      0.37      0.01         0.01
  YS02001890YS02001895        0.29      0.29      0.38      0.01         0.01
  YS02001895YS02001898        0.28      0.28      0.29      0.01         0.01
  YS02001898YS02001901        0.29      0.29      0.33      0.01         0.01
  YS02001901YS02001904        0.32      0.32      0.33      0.01         0.01
  YS02001904YS02001907        0.32      0.32      0.56      0.01         0.01
  YS02001907YS02006553        0.72      0.72      0.77      0.01         0.01
  YS02001910YS02001907        0.38      0.38      0.55      0.01         0.01
  YS02001915YS02001910        0.30      0.30      0.38      0.01         0.01
  YS02001918YS02001915        0.22      0.22      0.30      0.01         0.01
  YS02001920YS02001918        0.22      0.22      0.23      0.01         0.01
  YS02001923YS02001920        0.17      0.17      0.23      0.01         0.01
  YS02001926YS02001923        0.01      0.01      0.01      0.01         0.01
  YS02001929YS02001926        0.01      0.01      0.01      0.01         0.01
  YS02006553YS02006556        0.46      0.46      0.56      0.01         0.01
  YS02006556YS02006558        0.51      0.51      0.58      0.01         0.01
  YS02006558YS02006561        0.26      0.45      0.26      0.65         0.26
  YS02006561YS02001783        0.19      0.19      0.35      0.01         0.01
  YS02163301YS02001633        0.61      0.61      0.66      0.01         0.01
  YS02163601YS02164001        0.54      0.54      0.66      0.28         0.01
  YS02164001YS02001641        0.52      0.54      0.52      0.72         0.51
  YSB1154YSB6556              0.59      0.59      0.75      0.01         0.01
  YSB1171HS02004479           0.47      0.47      0.75      0.01         0.01
  YSB1174YSB1171              0.65      0.65      1.02      0.01         0.01
  YSB6556YSB1171              0.59      0.59      1.22      0.01         0.01
  
  
  ***************
  Pumping Summary
  ***************
  
  ---------------------------------------------------------------------------------------------------------
                                                  Min       Avg       Max     Total     Power    % Time Off
                        Percent   Number of      Flow      Flow      Flow    Volume     Usage    Pump Curve
  Pump                 Utilized   Start-Ups       LPS       LPS       LPS  10^6 ltr     Kw-hr    Low   High
  ---------------------------------------------------------------------------------------------------------
  CC-R1                    4.14          24      0.00   3027.18   3415.00     3.250     53.77    0.0  100.0
  CC-R2                    4.84          18      0.00   3095.68   3415.00     3.944     65.72    0.0  100.0
  CC-S1                    4.13          22      0.00    899.72   1000.00     0.949      9.29    0.0    0.0
  CC-S2                    6.18          21      0.00    930.03   1000.00     1.541     15.26    0.0    0.0
  JK-R1                    3.92          15      0.00   1497.01   5000.00     1.708     17.19    0.0    0.0
  JK-R2                    0.46          10      0.00   3816.90   5000.00     0.477      3.39    0.0    0.0
  JK-S                     5.83          33      0.00    642.32   1500.00     1.172     20.11    0.0    0.0
  XR-1                    97.91           2      0.00     95.00     95.00     2.679      9.61    0.0    0.0
  XR-2                    93.94           2      0.00     95.00     95.00     2.570      8.77    0.0    0.0
  XR-3                     0.00           1      0.00     95.00     95.00     0.000      0.00    0.0    0.0
  XR-4                     0.00           1      0.00     95.00     95.00     0.000      0.00    0.0    0.0
  

  Analysis begun on:  Thu Jul 13 10:45:43 2023
  Analysis ended on:  Thu Jul 13 10:45:54 2023
  Total elapsed time: 00:00:11