
  OWA STORM WATER MANAGEMENT MODEL - VERSION v5.1.14 (OWA 2022-07-31)
  --------------------------------------------------------------

  WARNING 04: minimum elevation drop used for Conduit WS02004404WS02004405
  WARNING 03: negative offset ignored for Link YS02001904YS02001907
  
  *********************************************************
  NOTE: The summary statistics displayed in this report are
  based on results found at every computational time step,  
  not just on results from each reporting time step.
  *********************************************************
  
  ****************
  Analysis Options
  ****************
  Flow Units ............... LPS
  Process Models:
    Rainfall/Runoff ........ YES
    RDII ................... NO
    Snowmelt ............... NO
    Groundwater ............ NO
    Flow Routing ........... YES
    Ponding Allowed ........ NO
    Water Quality .......... NO
  Infiltration Method ...... HORTON
  Flow Routing Method ...... DYNWAVE
  Surcharge Method ......... EXTRAN
  Starting Date ............ 08/28/2015 08:00:00
  Ending Date .............. 08/28/2015 16:00:00
  Antecedent Dry Days ...... 8.0
  Report Time Step ......... 00:01:00
  Wet Time Step ............ 00:01:00
  Dry Time Step ............ 00:01:00
  Routing Time Step ........ 30.00 sec
  Variable Time Step ....... YES
  Maximum Trials ........... 8
  Number of Threads ........ 2
  Head Tolerance ........... 0.001500 m
  
  
  **************************        Volume         Depth
  Runoff Quantity Continuity     hectare-m            mm
  **************************     ---------       -------
  Initial LID Storage ......         0.072         1.184
  Total Precipitation ......         3.319        54.785
  Evaporation Loss .........         0.000         0.000
  Infiltration Loss ........         0.203         3.345
  Surface Runoff ...........         2.510        41.427
  Final Storage ............         0.679        11.213
  Continuity Error (%) .....        -0.030
  
  
  **************************        Volume        Volume
  Flow Routing Continuity        hectare-m      10^6 ltr
  **************************     ---------     ---------
  Dry Weather Inflow .......         0.630         6.296
  Wet Weather Inflow .......         2.510        25.096
  Groundwater Inflow .......         0.000         0.000
  RDII Inflow ..............         0.000         0.000
  External Inflow ..........         0.105         1.045
  External Outflow .........         2.071        20.713
  Flooding Loss ............         0.949         9.489
  Evaporation Loss .........         0.000         0.000
  Exfiltration Loss ........         0.000         0.000
  Initial Stored Volume ....         0.303         3.031
  Final Stored Volume ......         0.530         5.305
  Continuity Error (%) .....        -0.110
  
  
  *************************
  Highest Continuity Errors
  *************************
  Node YS02001583 (-5.78%)
  Node YS02001774 (5.63%)
  Node YS02001884 (5.04%)
  Node HS02004842 (1.73%)
  Node HS02004817 (1.24%)
  
  
  ***************************
  Time-Step Critical Elements
  ***************************
  Link WS02006252WS02006251 (62.50%)
  Link WS02006280WS02006229 (18.01%)
  Link WS02006238WS02006235 (5.03%)
  Link YS02001791YS02001793 (3.62%)
  Link WS02004404WS02004405 (1.35%)
  
  
  ********************************
  Highest Flow Instability Indexes
  ********************************
  Link WS02006113WS02006111 (22)
  Link WS02006256WS02006235 (15)
  Link WS02004404WS02004405 (14)
  Link WS02006238WS02006235 (14)
  Link WS02006252WS02006251 (13)
  
  
  *************************
  Routing Time Step Summary
  *************************
  Minimum Time Step           :     0.03 sec
  Average Time Step           :     2.05 sec
  Maximum Time Step           :     6.46 sec
  Percent in Steady State     :    -0.00
  Average Iterations per Step :     2.92
  Percent Not Converging      :     8.93
  
  
  ***************************
  Subcatchment Runoff Summary
  ***************************
  
  ------------------------------------------------------------------------------------------------------------------------------
                            Total      Total      Total      Total     Imperv       Perv      Total       Total     Peak  Runoff
                           Precip      Runon       Evap      Infil     Runoff     Runoff     Runoff      Runoff   Runoff   Coeff
  Subcatchment                 mm         mm         mm         mm         mm         mm         mm    10^6 ltr      LPS
  ------------------------------------------------------------------------------------------------------------------------------
  sub0                      54.78       0.00       0.00       1.00      49.70       2.83      52.53        0.04    27.06   0.959
  sub1                      54.78       0.00       0.00       1.52      42.59       3.89      46.47        0.31   168.57   0.848
  sub10                     54.78       0.00       0.00       0.97      39.91       2.59      42.51        0.47   265.05   0.776
  sub11                     54.78       0.00       0.00       0.88      37.09       2.42      39.52        0.46   273.43   0.721
  sub12                     54.78       0.00       0.00       1.55      37.71       4.23      41.94        0.37   231.24   0.766
  sub14                     54.78       0.00       0.00       0.96      35.13       2.60      37.73        0.36   211.49   0.689
  sub15                     54.78       0.00       0.00       4.33      31.58       9.56      41.14        0.71   373.46   0.751
  sub16                     54.78       0.00       0.00       4.61      30.81      10.95      41.76        0.44   252.87   0.762
  sub17                     54.78       0.00       0.00       4.93      34.00      11.48      45.48        0.39   220.06   0.830
  sub2                      54.78       0.00       0.00       6.80      31.13      11.98      43.10        0.40   177.37   0.787
  sub22                     54.78       0.00       0.00       7.65      29.48      15.16      44.64        2.82  1371.37   0.815
  sub23                     54.78       0.00       0.00       5.77      30.36      12.52      42.88        2.05  1081.37   0.783
  sub3                      54.78       0.00       0.00       7.26      30.82      11.35      42.17        0.95   383.04   0.770
  sub4                      54.78       0.00       0.00       1.64      41.93       3.69      45.62        0.95   416.52   0.833
  sub5                      54.78       0.00       0.00       0.86      41.20       2.32      43.52        0.49   273.18   0.794
  sub60                     54.78       0.00       0.00       1.38      36.28       3.70      39.97        0.53   315.64   0.730
  sub61                     54.78       0.00       0.00       2.12      36.25       5.50      41.75        0.77   460.14   0.762
  sub62                     54.78       0.00       0.00       0.94      38.64       2.51      41.15        1.13   633.59   0.751
  sub63                     54.78       0.00       0.00       3.86      31.05       9.14      40.19        0.91   519.73   0.734
  sub64                     54.78       0.00       0.00       1.86      35.35       4.55      39.89        0.96   514.27   0.728
  sub65                     54.78       0.00       0.00       1.70      38.15       4.15      42.30        1.16   603.20   0.772
  sub66                     54.78       0.00       0.00       4.48      30.01       8.12      38.13        1.78   778.88   0.696
  sub67                     54.78       0.00       0.00       0.93      39.62       2.60      42.22        0.79   488.74   0.771
  sub68                     54.78       0.00       0.00       1.62      34.99       4.22      39.21        1.08   629.96   0.716
  sub69                     54.78       0.00       0.00       1.48      36.82       5.03      41.86        1.55   781.49   0.764
  sub7                      54.78       0.00       0.00       1.02      37.65       2.80      40.45        0.14    82.32   0.738
  sub70                     54.78       0.00       0.00       4.91      29.49      10.34      39.83        1.15   452.49   0.727
  sub71                     54.78       0.00       0.00       0.86      35.10       2.27      37.37        0.98   521.50   0.682
  sub72                     54.78       0.00       0.00       0.82      37.91       2.11      40.02        0.55   270.40   0.730
  sub8                      54.78       0.00       0.00       1.00      36.59       2.71      39.30        0.25   148.54   0.717
  sub9                      54.78       0.00       0.00       0.97      35.47       2.63      38.10        0.18   108.24   0.695
  

  ***********************
  LID Performance Summary
  ***********************

  --------------------------------------------------------------------------------------------------------------------
                                         Total      Evap     Infil   Surface    Drain    Initial     Final  Continuity
                                        Inflow      Loss      Loss   Outflow   Outflow   Storage   Storage       Error
  Subcatchment      LID Control             mm        mm        mm        mm        mm        mm        mm           %
  --------------------------------------------------------------------------------------------------------------------
  sub1              GreenRoof            54.78      0.00      0.00      0.00      0.00      7.05     61.89       -0.08
  sub10             GreenRoof            54.78      0.00      0.00      0.00      0.00      7.05     61.89       -0.08
  sub11             GreenRoof            54.78      0.00      0.00      0.00      0.00      7.05     61.89       -0.08
  sub12             GreenRoof            54.78      0.00      0.00      0.00      0.00      7.05     61.89       -0.08
  sub14             GreenRoof            54.78      0.00      0.00      0.00      0.00      7.05     61.89       -0.08
  sub15             GreenRoof            54.78      0.00      0.00      0.00      0.00      7.05     61.89       -0.08
  sub16             GreenRoof            54.78      0.00      0.00      0.00      0.00      7.05     61.89       -0.08
  sub17             GreenRoof            54.78      0.00      0.00      0.00      0.00      7.05     61.89       -0.08
  sub2              GreenRoof            54.78      0.00      0.00      0.00      0.00      7.05     61.89       -0.08
  sub22             GreenRoof            54.78      0.00      0.00      0.00      0.00      7.05     61.89       -0.08
  sub23             GreenRoof            54.78      0.00      0.00      0.00      0.00      7.05     61.89       -0.08
  sub3              GreenRoof            54.78      0.00      0.00      0.00      0.00      7.05     61.89       -0.08
  sub4              GreenRoof            54.78      0.00      0.00      0.00      0.00      7.05     61.89       -0.08
  sub5              GreenRoof            54.78      0.00      0.00      0.00      0.00      7.05     61.89       -0.08
  sub60             GreenRoof            54.78      0.00      0.00      0.00      0.00      7.05     61.89       -0.08
  sub61             GreenRoof            54.78      0.00      0.00      0.00      0.00      7.05     61.89       -0.08
  sub62             GreenRoof            54.78      0.00      0.00      0.00      0.00      7.05     61.89       -0.08
  sub63             GreenRoof            54.78      0.00      0.00      0.00      0.00      7.05     61.89       -0.08
  sub64             GreenRoof            54.78      0.00      0.00      0.00      0.00      7.05     61.89       -0.08
  sub65             GreenRoof            54.78      0.00      0.00      0.00      0.00      7.05     61.89       -0.08
  sub66             GreenRoof            54.78      0.00      0.00      0.00      0.00      7.05     61.89       -0.08
  sub67             GreenRoof            54.78      0.00      0.00      0.00      0.00      7.05     61.89       -0.08
  sub68             GreenRoof            54.78      0.00      0.00      0.00      0.00      7.05     61.89       -0.08
  sub69             GreenRoof            54.78      0.00      0.00      0.00      0.00      7.05     61.89       -0.08
  sub7              GreenRoof            54.78      0.00      0.00      0.00      0.00      7.05     61.89       -0.08
  sub70             GreenRoof            54.78      0.00      0.00      0.00      0.00      7.05     61.89       -0.08
  sub71             GreenRoof            54.78      0.00      0.00      0.00      0.00      7.05     61.89       -0.08
  sub72             GreenRoof            54.78      0.00      0.00      0.00      0.00      7.05     61.89       -0.08
  sub8              GreenRoof            54.78      0.00      0.00      0.00      0.00      7.05     61.89       -0.08
  sub9              GreenRoof            54.78      0.00      0.00      0.00      0.00      7.05     61.89       -0.08
  
  ******************
  Node Depth Summary
  ******************
  
  ---------------------------------------------------------------------------------
                                 Average  Maximum  Maximum  Time of Max    Reported
                                   Depth    Depth      HGL   Occurrence   Max Depth
  Node                 Type       Meters   Meters   Meters  days hr:min      Meters
  ---------------------------------------------------------------------------------
  HS02004478           JUNCTION     0.19     1.57    10.80     0  02:00        1.51
  HS02004479           JUNCTION     0.26     1.70    10.90     0  02:00        1.69
  HS02004480           JUNCTION     0.23     1.68    10.92     0  02:00        1.65
  HS02004770           JUNCTION     0.24     1.42    11.25     0  01:57        1.42
  HS02004777           JUNCTION     0.26     1.48    11.28     0  01:57        1.45
  HS02004785           JUNCTION     0.16     1.49    11.39     0  01:57        1.33
  HS02004788           JUNCTION     0.12     1.42    11.32     0  01:57        1.32
  HS02004792           JUNCTION     0.17     1.60    11.12     0  01:57        1.60
  HS02004799           JUNCTION     0.29     1.76    10.97     0  02:00        1.76
  HS02004802           JUNCTION     0.28     1.78    10.91     0  02:00        1.66
  HS02004807           JUNCTION     0.25     1.91    11.08     0  02:00        1.69
  HS02004817           JUNCTION     0.56     2.37    11.22     0  02:00        2.05
  HS02004824           JUNCTION     0.13     1.96    11.36     0  02:00        1.53
  HS02004830           JUNCTION     0.13     1.98    11.45     0  02:00        1.48
  HS02004837           JUNCTION     0.10     1.95    11.53     0  02:00        1.39
  HS02004842           JUNCTION     0.40     2.22    11.49     0  02:00        1.70
  HS02004848           JUNCTION     0.08     2.07    11.67     0  02:00        1.37
  HS02004852           JUNCTION     0.09     2.12    11.63     0  02:00        1.41
  HS02004856           JUNCTION     0.15     2.07    11.50     0  02:00        1.46
  HS02004862           JUNCTION     0.10     2.00    11.38     0  02:00        2.00
  HS02004870           JUNCTION     0.09     1.99    11.28     0  02:00        1.75
  HS02004876           JUNCTION     0.14     1.99    11.02     0  02:00        1.57
  HS02004881           JUNCTION     0.08     1.72    10.75     0  02:00        1.40
  HS02004901           JUNCTION     0.24     1.42    11.24     0  01:57        1.42
  WS02001211           JUNCTION     0.64     0.80     5.64     0  02:06        0.80
  WS02001212           JUNCTION     0.38     0.57     5.63     0  02:06        0.56
  WS02001213           JUNCTION     0.59     0.86     5.62     0  02:06        0.86
  WS02003059           JUNCTION     0.65     0.93     5.62     0  02:05        0.93
  WS02003060           JUNCTION     0.37     0.68     5.61     0  02:05        0.68
  WS02003066           JUNCTION     0.21     0.45     6.00     0  02:02        0.45
  WS02003067           JUNCTION     0.51     0.88     6.20     0  02:02        0.88
  WS02003069           JUNCTION     0.41     0.77     5.35     0  02:05        0.77
  WS02003072           JUNCTION     0.47     0.80     5.18     0  02:06        0.80
  WS02003073           JUNCTION     0.28     0.51     4.57     0  02:07        0.51
  WS02004138           JUNCTION     0.13     0.14     7.39     0  00:30        0.14
  WS02004139           JUNCTION     0.57     0.74     5.65     0  02:05        0.74
  WS02004401           JUNCTION     0.71     1.82     7.82     0  02:03        1.80
  WS02004402           JUNCTION     0.73     1.76     7.72     0  02:03        1.75
  WS02004403           JUNCTION     0.74     1.69     7.62     0  02:03        1.68
  WS02004404           JUNCTION     0.81     1.70     7.55     0  02:03        1.68
  WS02004405           JUNCTION     0.80     1.65     7.50     0  02:03        1.64
  WS02004406           JUNCTION     0.79     1.53     7.36     0  02:03        1.53
  WS02004407           JUNCTION     0.23     0.88     7.19     0  02:02        0.88
  WS02004409           JUNCTION     0.48     1.36     7.13     0  02:03        1.36
  WS02004410           JUNCTION     0.49     1.27     6.99     0  02:01        1.26
  WS02004411           JUNCTION     0.50     1.18     6.86     0  02:01        1.18
  WS02004412           JUNCTION     0.50     1.09     6.73     0  02:01        1.09
  WS02004413           JUNCTION     0.64     1.14     6.61     0  02:02        1.13
  WS02006109           JUNCTION     0.88     2.64     9.26     0  01:57        2.64
  WS02006110           JUNCTION     0.83     2.38     8.97     0  02:03        2.38
  WS02006111           JUNCTION     0.37     1.68     8.39     0  02:03        1.67
  WS02006112           JUNCTION     0.91     2.30     8.19     0  02:03        2.29
  WS02006113           JUNCTION     0.43     1.79     8.68     0  02:03        1.77
  WS02006115           JUNCTION     0.62     1.90     8.04     0  02:03        1.89
  WS02006116           JUNCTION     0.70     1.90     7.94     0  02:03        1.90
  WS02006228           JUNCTION     0.92     3.03     9.68     0  02:00        3.02
  WS02006229           JUNCTION     0.92     3.23     9.92     0  02:00        3.20
  WS02006230           JUNCTION     0.86     2.65     9.39     0  01:54        2.65
  WS02006231           JUNCTION     0.60     2.19     9.31     0  02:23        2.19
  WS02006232           JUNCTION     0.69     2.18     9.22     0  01:54        2.18
  WS02006234           JUNCTION     0.57     1.96     9.12     0  01:53        1.96
  WS02006235           JUNCTION     0.58     1.95     9.11     0  02:17        1.93
  WS02006238           JUNCTION     0.60     1.95     9.09     0  02:17        1.93
  WS02006239           JUNCTION     0.54     1.92     9.13     0  03:00        1.87
  WS02006240           JUNCTION     0.50     2.10     9.39     0  03:00        1.74
  WS02006242           JUNCTION     0.54     1.55     8.82     0  01:52        1.55
  WS02006243           JUNCTION     0.44     1.46     8.88     0  03:00        1.37
  WS02006245           JUNCTION     0.43     1.41     8.89     0  03:00        1.33
  WS02006247           JUNCTION     0.43     1.32     8.82     0  03:00        1.26
  WS02006248           JUNCTION     0.38     1.10     8.69     0  01:48        1.10
  WS02006249           JUNCTION     0.41     1.09     8.69     0  01:48        1.09
  WS02006251           JUNCTION     0.47     2.20     9.87     0  01:59        2.08
  WS02006252           JUNCTION     0.33     1.50     9.74     0  00:00        1.50
  WS02006253           JUNCTION     0.53     2.94    10.59     0  02:00        2.70
  WS02006256           JUNCTION     0.89     2.35     9.28     0  00:00        2.35
  WS02006280           JUNCTION     0.25     1.75    10.02     0  02:00        1.70
  WS02006284           JUNCTION     0.52     1.95    10.35     0  02:00        1.89
  WS02006287           JUNCTION     0.25     1.73    10.69     0  02:00        1.67
  WSF200               JUNCTION     0.20     0.51     5.75     0  02:04        0.51
  YS02001580           JUNCTION     0.05     1.05     9.59     0  01:57        0.77
  YS02001583           JUNCTION     0.09     0.99     9.49     0  01:57        0.81
  YS02001586           JUNCTION     0.14     1.13     9.30     0  01:57        1.13
  YS02001590           JUNCTION     0.23     1.40     9.26     0  01:57        1.37
  YS02001593           JUNCTION     0.17     1.34     9.20     0  01:57        1.29
  YS02001596           JUNCTION     0.23     1.68     9.10     0  01:57        1.65
  YS02001600           JUNCTION     0.29     1.87     9.00     0  01:57        1.87
  YS02001601           JUNCTION     0.47     2.06     8.90     0  01:56        2.06
  YS02001602           JUNCTION     0.39     1.87     8.77     0  01:57        1.87
  YS02001605           JUNCTION     0.36     1.78     8.68     0  02:18        1.77
  YS02001607           JUNCTION     0.37     1.66     8.51     0  02:03        1.66
  YS02001610           JUNCTION     0.41     1.68     8.48     0  01:57        1.68
  YS02001613           JUNCTION     0.37     1.69     8.53     0  02:03        1.69
  YS02001616           JUNCTION     0.30     1.61     8.52     0  01:59        1.59
  YS02001619           JUNCTION     0.28     1.60     8.53     0  01:59        1.59
  YS02001622           JUNCTION     0.27     1.57     8.48     0  01:59        1.56
  YS02001625           JUNCTION     0.53     1.78     8.38     0  01:59        1.78
  YS02001629           JUNCTION     0.39     1.85     8.40     0  01:57        1.85
  YS02001633           JUNCTION     0.47     2.03     8.49     0  02:01        2.03
  YS02001641           JUNCTION     0.46     1.96     8.40     0  02:01        1.93
  YS02001644           JUNCTION     0.45     1.92     8.35     0  02:01        1.92
  YS02001647           JUNCTION     0.25     1.79     8.40     0  02:03        1.79
  YS02001649           JUNCTION     0.38     2.01     8.40     0  02:03        2.01
  YS02001652           JUNCTION     0.21     1.84     8.44     0  02:03        1.84
  YS02001655           JUNCTION     0.13     1.74     8.59     0  02:01        1.53
  YS02001658           JUNCTION     0.09     1.70     8.84     0  02:01        1.15
  YS02001661           JUNCTION     0.13     1.05     8.46     0  02:02        0.91
  YS02001664           JUNCTION     0.05     0.50     8.42     0  02:02        0.47
  YS02001745           JUNCTION     0.05     0.71     8.23     0  02:01        0.67
  YS02001748           JUNCTION     0.08     1.58     8.66     0  02:01        1.11
  YS02001751           JUNCTION     0.11     1.60     8.48     0  02:01        1.28
  YS02001754           JUNCTION     0.18     1.69     8.30     0  02:01        1.53
  YS02001757           JUNCTION     0.48     1.99     8.25     0  02:03        1.99
  YS02001759           JUNCTION     0.39     2.00     8.36     0  02:03        2.00
  YS02001762           JUNCTION     0.36     2.08     8.48     0  02:03        2.08
  YS02001765           JUNCTION     0.32     2.07     8.52     0  02:03        2.07
  YS02001767           JUNCTION     0.29     2.03     8.52     0  02:03        2.03
  YS02001770           JUNCTION     0.29     1.95     8.44     0  02:03        1.95
  YS02001774           JUNCTION     0.36     2.05     8.47     0  02:03        2.05
  YS02001779           JUNCTION     0.13     1.68     8.37     0  02:00        1.68
  YS02001783           JUNCTION     0.21     1.26     7.40     0  02:00        1.24
  YS02001784           JUNCTION     0.23     1.34     7.41     0  02:21        1.12
  YS02001786           JUNCTION     0.21     1.32     7.35     0  02:21        0.95
  YS02001788           JUNCTION     0.16     1.25     7.23     0  02:21        0.90
  YS02001790           JUNCTION     0.22     1.44     7.08     0  02:21        1.13
  YS02001791           JUNCTION     0.19     1.38     6.85     0  02:21        1.20
  YS02001793           JUNCTION     0.22     1.87     6.70     0  02:21        1.79
  YS02001882           JUNCTION     0.25     1.67     8.38     0  02:00        1.61
  YS02001884           JUNCTION     0.33     1.76     8.37     0  02:00        1.71
  YS02001887           JUNCTION     0.41     1.82     8.35     0  02:00        1.79
  YS02001890           JUNCTION     0.44     1.81     8.32     0  02:00        1.81
  YS02001895           JUNCTION     0.22     1.57     8.31     0  02:00        1.55
  YS02001898           JUNCTION     0.22     1.57     8.30     0  02:00        1.56
  YS02001901           JUNCTION     0.33     1.69     8.30     0  02:03        1.69
  YS02001904           JUNCTION     0.32     1.64     8.27     0  02:03        1.63
  YS02001907           JUNCTION     0.63     1.96     8.25     0  02:00        1.96
  YS02001910           JUNCTION     0.43     1.97     8.48     0  02:01        1.80
  YS02001915           JUNCTION     0.24     1.92     8.64     0  02:01        1.65
  YS02001918           JUNCTION     0.11     1.81     8.88     0  02:01        1.32
  YS02001920           JUNCTION     0.19     2.14     9.15     0  02:01        1.40
  YS02001923           JUNCTION     0.08     2.03     9.29     0  02:01        1.17
  YS02001926           JUNCTION     0.12     1.90     9.35     0  02:01        1.00
  YS02001929           JUNCTION     0.06     1.78     9.47     0  02:01        0.71
  YS02006553           JUNCTION     0.64     1.97     8.26     0  02:01        1.97
  YS02006556           JUNCTION     0.61     1.94     8.25     0  02:01        1.94
  YS02006558           JUNCTION     0.65     1.98     8.25     0  02:01        1.98
  YS02006561           JUNCTION     0.12     0.95     7.61     0  02:00        0.90
  YS02163301           JUNCTION     0.41     1.94     8.45     0  02:03        1.94
  YS02163601           JUNCTION     0.51     2.07     8.47     0  02:03        2.07
  YS02164001           JUNCTION     0.44     1.97     8.42     0  02:01        1.95
  YSB1154              JUNCTION     0.39     1.87    10.93     0  02:00        1.86
  YSB1171              JUNCTION     0.54     1.95    10.85     0  02:00        1.95
  YSB1174              JUNCTION     0.35     1.79    10.90     0  02:03        1.79
  YSB6556              JUNCTION     0.29     1.73    10.90     0  01:58        1.72
  CC-1                 OUTFALL      0.00     0.00     0.00     0  00:00        0.00
  CC-2                 OUTFALL      0.00     0.00     0.00     0  00:00        0.00
  JK-1                 OUTFALL      0.00     0.00     0.00     0  00:00        0.00
  JK-2                 OUTFALL      0.00     0.00     0.00     0  00:00        0.00
  WSC                  OUTFALL      0.28     0.51     1.18     0  02:07        0.51
  CC-storage           STORAGE      1.11     1.62     7.12     0  02:22        1.62
  JK-storage           STORAGE      3.20     5.80     6.60     0  02:21        5.80
  XR-storage           STORAGE      7.96     9.26     7.26     0  08:00        9.26
  
  
  *******************
  Node Inflow Summary
  *******************
  
  -------------------------------------------------------------------------------------------------
                                  Maximum  Maximum                  Lateral       Total        Flow
                                  Lateral    Total  Time of Max      Inflow      Inflow     Balance
                                   Inflow   Inflow   Occurrence      Volume      Volume       Error
  Node                 Type           LPS      LPS  days hr:min    10^6 ltr    10^6 ltr     Percent
  -------------------------------------------------------------------------------------------------
  HS02004478           JUNCTION      0.00  2244.39     0  02:03           0        7.68      -0.008
  HS02004479           JUNCTION      0.00   456.04     0  02:00           0       0.777       0.104
  HS02004480           JUNCTION      0.00  2121.78     0  01:58           0        6.04       0.034
  HS02004770           JUNCTION   1081.37  1081.37     0  02:02        2.05        2.29       0.134
  HS02004777           JUNCTION      0.03   754.29     0  01:56    0.000864        1.81       0.286
  HS02004785           JUNCTION      0.15   772.77     0  01:56     0.00432        1.81       0.029
  HS02004788           JUNCTION    375.13   833.91     0  01:57       0.756        2.57      -0.024
  HS02004792           JUNCTION   1371.65  2091.37     0  02:02        2.83        5.39       0.007
  HS02004799           JUNCTION    211.49  1774.99     0  01:58       0.359        5.27       0.052
  HS02004802           JUNCTION      0.00   717.28     0  02:03           0        1.67       0.240
  HS02004807           JUNCTION    273.43   717.48     0  02:03       0.459        1.71       0.246
  HS02004817           JUNCTION      0.60   454.00     0  02:03      0.0173        1.31       1.254
  HS02004824           JUNCTION    416.57   658.18     0  01:58       0.953        1.51       0.041
  HS02004830           JUNCTION      0.15   664.09     0  01:57     0.00432       0.781       0.141
  HS02004837           JUNCTION    271.40   844.24     0  01:58       0.652        1.09       0.057
  HS02004842           JUNCTION      0.00   840.09     0  01:58           0       0.749       1.763
  HS02004848           JUNCTION    383.04  1095.65     0  01:59       0.949        1.52      -0.009
  HS02004852           JUNCTION      0.00  1091.90     0  01:59           0        1.36       0.004
  HS02004856           JUNCTION    108.24  1194.50     0  01:59       0.183        1.55       0.041
  HS02004862           JUNCTION    177.57  1259.89     0  01:59       0.407        1.95      -0.019
  HS02004870           JUNCTION    148.54  1346.15     0  01:59       0.251         2.2      -0.002
  HS02004876           JUNCTION    168.57  1339.57     0  02:00       0.309        2.51       0.024
  HS02004881           JUNCTION     82.32  1419.41     0  02:00       0.136        2.65       0.025
  HS02004901           JUNCTION    252.87   481.50     0  02:03       0.437       0.638       0.288
  WS02001211           JUNCTION      7.35   202.85     0  03:14       0.212        5.44       0.610
  WS02001212           JUNCTION      0.00   207.99     0  03:13           0        5.41       0.290
  WS02001213           JUNCTION      0.00   212.15     0  03:13           0        5.39       0.332
  WS02003059           JUNCTION      0.00   217.90     0  03:12           0        5.38       0.595
  WS02003060           JUNCTION     16.53  1479.64     0  02:04       0.476        13.4       0.110
  WS02003066           JUNCTION      0.00  1274.12     0  02:02           0        7.54       0.020
  WS02003067           JUNCTION      0.00  1273.76     0  02:02           0        7.55       0.059
  WS02003069           JUNCTION      0.32  1478.65     0  02:05     0.00922        13.4       0.116
  WS02003072           JUNCTION      0.00  1478.28     0  02:06           0        13.3       0.157
  WS02003073           JUNCTION      1.82  1480.15     0  02:06      0.0524        13.4       0.163
  WS02004138           JUNCTION      0.00   380.00     0  00:00           0        5.25       0.054
  WS02004139           JUNCTION      0.32   190.32     0  00:30     0.00924        5.26       0.509
  WS02004401           JUNCTION      0.00  1273.95     0  02:01           0        7.65       0.136
  WS02004402           JUNCTION      0.00  1274.27     0  02:02           0        7.64       0.137
  WS02004403           JUNCTION      0.00  1274.01     0  02:02           0        7.63       0.134
  WS02004404           JUNCTION      0.16  1274.53     0  02:02     0.00467        7.62       0.110
  WS02004405           JUNCTION      0.04  1274.85     0  02:03      0.0011        7.62       0.164
  WS02004406           JUNCTION      0.00  1276.28     0  02:03           0         7.6       0.278
  WS02004407           JUNCTION      0.00  1276.32     0  02:03           0        7.58       0.021
  WS02004409           JUNCTION      0.00  1274.21     0  02:02           0        7.58       0.040
  WS02004410           JUNCTION      0.00  1274.27     0  02:02           0        7.58       0.062
  WS02004411           JUNCTION      0.00  1274.02     0  02:02           0        7.57       0.080
  WS02004412           JUNCTION      0.00  1274.13     0  02:02           0        7.57       0.106
  WS02004413           JUNCTION      0.00  1273.95     0  02:02           0        7.56       0.181
  WS02006109           JUNCTION      1.23  1258.79     0  02:02      0.0354        7.44       0.148
  WS02006110           JUNCTION      0.00  1117.08     0  02:16           0         7.3       0.102
  WS02006111           JUNCTION      0.00  1117.28     0  02:15           0        7.29       0.010
  WS02006112           JUNCTION    220.06  1273.94     0  02:02        0.39        7.68       0.232
  WS02006113           JUNCTION      0.00  1117.27     0  02:16           0        7.29       0.025
  WS02006115           JUNCTION      0.00  1273.96     0  02:02           0        7.66       0.084
  WS02006116           JUNCTION      0.00  1274.46     0  02:01           0        7.66       0.079
  WS02006228           JUNCTION      0.00  1258.44     0  02:02           0        7.41       0.075
  WS02006229           JUNCTION      0.00  2244.47     0  02:02           0        9.26       0.089
  WS02006230           JUNCTION     10.28   996.04     0  02:02       0.296        3.48       0.221
  WS02006231           JUNCTION      0.00   453.28     0  02:01           0        2.52      -0.185
  WS02006232           JUNCTION      0.00   453.43     0  01:58           0        2.51       0.311
  WS02006234           JUNCTION      0.00   453.21     0  01:59           0        2.48      -0.303
  WS02006235           JUNCTION      0.00   415.40     0  02:23           0        2.55       0.342
  WS02006238           JUNCTION      0.00   416.27     0  02:30           0        2.27      -0.207
  WS02006239           JUNCTION      0.00   415.43     0  02:30           0        2.25      -0.147
  WS02006240           JUNCTION      0.00   415.25     0  02:22           0        2.22      -0.003
  WS02006242           JUNCTION      0.00   415.08     0  02:23           0         2.2       0.048
  WS02006243           JUNCTION      0.00   395.81     0  03:20           0        1.87       0.098
  WS02006245           JUNCTION      0.00   395.82     0  03:20           0        1.87       0.531
  WS02006247           JUNCTION      0.00   395.83     0  03:20           0        1.87       0.080
  WS02006248           JUNCTION      0.00   429.69     0  03:16           0         2.1      -0.048
  WS02006249           JUNCTION      0.00  1336.33     0  02:00           0        4.61       0.175
  WS02006251           JUNCTION      0.08  1450.36     0  02:00     0.00222        4.64      -0.018
  WS02006252           JUNCTION      0.00   400.00     0  00:00           0        2.01      -0.031
  WS02006253           JUNCTION     27.06  1448.04     0  02:00      0.0426        2.71       0.003
  WS02006256           JUNCTION      0.00   300.00     0  00:00           0       0.971      -0.486
  WS02006280           JUNCTION      0.00  2243.29     0  02:02           0        7.66       0.008
  WS02006284           JUNCTION      0.10  2242.87     0  02:02     0.00275        7.66      -0.002
  WS02006287           JUNCTION      0.00  2243.61     0  02:02           0        7.66       0.011
  WSF200               JUNCTION      0.00  1274.34     0  02:02           0        7.54       0.010
  YS02001580           JUNCTION      0.00   116.39     0  01:57           0     0.00406      -4.524
  YS02001583           JUNCTION      0.00   170.71     0  01:57           0      0.0149      -5.465
  YS02001586           JUNCTION    452.49   452.49     0  02:04        1.15        1.16       0.116
  YS02001590           JUNCTION      0.00   318.22     0  02:03           0        1.07      -0.030
  YS02001593           JUNCTION      0.00   318.06     0  02:09           0        1.07       0.009
  YS02001596           JUNCTION      0.00   318.12     0  02:03           0        1.07       0.000
  YS02001600           JUNCTION      0.00   318.00     0  02:04           0        1.07       0.001
  YS02001601           JUNCTION    781.49  1099.01     0  02:03        1.55        2.62       0.028
  YS02001602           JUNCTION      0.00   518.01     0  01:56           0        1.96       0.013
  YS02001605           JUNCTION      0.00   517.78     0  01:56           0        1.89       0.009
  YS02001607           JUNCTION      0.00   517.77     0  01:56           0        1.89       0.100
  YS02001610           JUNCTION      0.00   515.93     0  01:56           0        1.89       0.119
  YS02001613           JUNCTION      0.00   518.31     0  01:56           0        1.69       0.095
  YS02001616           JUNCTION      0.00   521.11     0  01:56           0        1.69       0.032
  YS02001619           JUNCTION    778.88   931.56     0  01:59        1.78        3.47      -0.001
  YS02001622           JUNCTION      0.00   937.68     0  01:57           0        3.47       0.001
  YS02001625           JUNCTION      0.00   944.01     0  01:57           0        3.47       0.256
  YS02001629           JUNCTION      0.00   945.32     0  01:57           0        3.05       0.027
  YS02001633           JUNCTION    603.40  1373.39     0  01:59        1.17        4.21       0.102
  YS02001641           JUNCTION      0.00  1372.31     0  01:59           0        4.21       0.080
  YS02001644           JUNCTION    514.31  1769.09     0  01:59       0.959        5.16       0.080
  YS02001647           JUNCTION      0.00  1773.46     0  01:59           0        5.13       0.011
  YS02001649           JUNCTION      0.00  1980.98     0  01:58           0        6.05       0.127
  YS02001652           JUNCTION      0.00   640.25     0  02:02           0       0.921      -0.048
  YS02001655           JUNCTION      0.15   638.59     0  02:02     0.00443       0.919      -0.013
  YS02001658           JUNCTION      0.00   636.30     0  02:02           0       0.913      -0.095
  YS02001661           JUNCTION      0.00   739.77     0  02:02           0       0.913       0.013
  YS02001664           JUNCTION    519.73   519.73     0  02:02       0.912       0.912      -0.009
  YS02001745           JUNCTION    315.65   391.80     0  02:01       0.525       0.526       0.253
  YS02001748           JUNCTION      0.04   559.75     0  02:01      0.0013       0.528      -0.320
  YS02001751           JUNCTION      0.01   366.76     0  02:02    0.000317       0.538       0.179
  YS02001754           JUNCTION      0.26   366.53     0  02:02     0.00749       0.556      -0.216
  YS02001757           JUNCTION      0.00  3066.01     0  02:02           0        8.51       0.425
  YS02001759           JUNCTION    460.18  1115.65     0  02:01       0.767        1.95       0.286
  YS02001762           JUNCTION      0.00   654.93     0  02:01           0        1.18       0.363
  YS02001765           JUNCTION      0.00   649.70     0  02:01           0        1.18       0.351
  YS02001767           JUNCTION      0.54   645.63     0  02:01      0.0154        1.17       0.341
  YS02001770           JUNCTION    633.74   634.56     0  02:02        1.13         1.2       0.226
  YS02001774           JUNCTION      0.00   435.56     0  02:00           0      0.0755       5.962
  YS02001779           JUNCTION      0.01   444.03     0  02:00    0.000144      0.0218      -4.218
  YS02001783           JUNCTION      0.00  1149.87     0  02:01           0        3.19       0.008
  YS02001784           JUNCTION      1.06  1151.34     0  02:01      0.0305        3.22       0.025
  YS02001786           JUNCTION      0.06  1150.97     0  02:01     0.00162        3.22       0.016
  YS02001788           JUNCTION      0.07  1151.74     0  02:01     0.00204        3.22       0.000
  YS02001790           JUNCTION      0.15  1166.85     0  02:01     0.00446        3.23      -0.001
  YS02001791           JUNCTION      0.00  1280.70     0  02:02           0        3.23      -0.036
  YS02001793           JUNCTION      0.00  1232.93     0  02:05           0        3.23      -0.014
  YS02001882           JUNCTION      0.00    64.56     0  01:59           0      0.0124       5.066
  YS02001884           JUNCTION      0.00    73.53     0  01:57           0      0.0483       5.307
  YS02001887           JUNCTION    489.19   490.37     0  02:01       0.798       0.832       0.528
  YS02001890           JUNCTION      0.00   489.70     0  02:01           0       0.791       0.639
  YS02001895           JUNCTION      0.00   487.64     0  02:01           0       0.785       0.202
  YS02001898           JUNCTION      0.00   487.07     0  02:01           0       0.783       0.034
  YS02001901           JUNCTION      0.00   487.85     0  02:01           0       0.786       0.428
  YS02001904           JUNCTION      0.00   487.85     0  02:01           0        0.79       0.348
  YS02001907           JUNCTION      0.00  1465.29     0  02:02           0        2.39       0.755
  YS02001910           JUNCTION      0.00   981.90     0  02:02           0        1.61       0.442
  YS02001915           JUNCTION    521.52   981.08     0  02:02       0.978        1.65       0.097
  YS02001918           JUNCTION      0.00   460.30     0  02:02           0       0.702       0.016
  YS02001920           JUNCTION      2.87   460.38     0  02:02      0.0827       0.684       0.105
  YS02001923           JUNCTION      0.04   415.00     0  02:01     0.00109       0.585      -0.224
  YS02001926           JUNCTION      0.05   651.48     0  02:01      0.0015       0.566      -0.154
  YS02001929           JUNCTION    270.40   486.74     0  02:00        0.55       0.553      -0.169
  YS02006553           JUNCTION      0.00   786.41     0  02:12           0        2.13       0.557
  YS02006556           JUNCTION      0.00   786.41     0  02:11           0        2.14       0.373
  YS02006558           JUNCTION    630.84  1153.27     0  02:00         1.1        3.22       0.115
  YS02006561           JUNCTION      0.00  1153.06     0  02:00           0        3.19      -0.006
  YS02163301           JUNCTION      0.00   929.77     0  01:59           0        3.04       0.069
  YS02163601           JUNCTION      0.11  1373.69     0  01:59     0.00317         4.2       0.137
  YS02164001           JUNCTION      0.00  1373.52     0  01:59           0         4.2       0.067
  YSB1154              JUNCTION    273.18   273.18     0  02:02       0.493       0.494       0.287
  YSB1171              JUNCTION      0.00   502.21     0  02:02           0       0.868       0.715
  YSB1174              JUNCTION    231.24   231.24     0  02:01       0.367       0.367       0.333
  YSB6556              JUNCTION      0.00   273.25     0  02:02           0       0.495       0.217
  CC-1                 OUTFALL       0.00   683.00     0  00:00           0        3.34       0.000
  CC-2                 OUTFALL       0.00   683.00     0  00:00           0        2.04       0.000
  JK-1                 OUTFALL       0.00  1000.00     0  00:00           0        1.26       0.000
  JK-2                 OUTFALL       0.00  1000.00     0  00:00           0       0.723       0.000
  WSC                  OUTFALL       0.00  1480.19     0  02:07           0        13.3       0.000
  CC-storage           STORAGE       0.00  3067.55     0  02:02           0        10.7       0.112
  JK-storage           STORAGE       0.00  1235.22     0  03:00           0        3.38       0.232
  XR-storage           STORAGE     200.00   200.00     0  00:00        5.76        6.36       0.001
  
  
  **********************
  Node Surcharge Summary
  **********************
  
  Surcharging occurs when water rises above the top of the highest conduit.
  ---------------------------------------------------------------------
                                               Max. Height   Min. Depth
                                   Hours       Above Crown    Below Rim
  Node                 Type      Surcharged         Meters       Meters
  ---------------------------------------------------------------------
  HS02004478           JUNCTION        0.36          0.654        0.286
  HS02004479           JUNCTION        0.49          0.897        0.153
  HS02004480           JUNCTION        0.53          0.965        0.135
  HS02004770           JUNCTION        0.44          0.720        0.000
  HS02004777           JUNCTION        0.44          0.780        0.000
  HS02004785           JUNCTION        0.39          0.790        0.000
  HS02004788           JUNCTION        0.38          0.720        0.000
  HS02004792           JUNCTION        0.50          0.900        0.000
  HS02004799           JUNCTION        0.62          1.060        0.000
  HS02004802           JUNCTION        0.53          1.069        0.141
  HS02004807           JUNCTION        0.51          1.207        0.013
  HS02004817           JUNCTION        1.12          1.674        0.066
  HS02004824           JUNCTION        0.38          1.260        0.050
  HS02004830           JUNCTION        0.35          1.280        0.050
  HS02004837           JUNCTION        0.31          1.247        0.093
  HS02004842           JUNCTION        0.45          1.520        0.000
  HS02004848           JUNCTION        0.28          1.370        0.000
  HS02004852           JUNCTION        0.30          1.420        0.000
  HS02004856           JUNCTION        0.29          1.300        0.000
  HS02004862           JUNCTION        0.32          1.300        0.000
  HS02004870           JUNCTION        0.34          1.291        0.109
  HS02004876           JUNCTION        0.41          1.294        0.266
  HS02004881           JUNCTION        0.39          1.018        0.432
  HS02004901           JUNCTION        0.45          0.720        0.000
  WS02004401           JUNCTION        1.40          0.817        0.843
  WS02004402           JUNCTION        1.42          0.760        0.980
  WS02004403           JUNCTION        1.43          0.687        1.343
  WS02004404           JUNCTION        1.54          0.698        2.082
  WS02004405           JUNCTION        1.50          0.647        2.153
  WS02004406           JUNCTION        1.48          0.529        1.921
  WS02004409           JUNCTION        0.89          0.363        1.997
  WS02004410           JUNCTION        0.84          0.271        2.269
  WS02004411           JUNCTION        0.76          0.183        2.347
  WS02004412           JUNCTION        0.65          0.091        2.219
  WS02004413           JUNCTION        1.21          0.137        2.063
  WS02006109           JUNCTION        1.90          1.820        0.000
  WS02006110           JUNCTION        1.71          1.472        0.378
  WS02006111           JUNCTION        1.19          0.872        0.998
  WS02006112           JUNCTION        1.77          1.305        0.375
  WS02006113           JUNCTION        1.20          0.985        0.945
  WS02006115           JUNCTION        1.35          0.895        1.355
  WS02006116           JUNCTION        1.36          0.844        1.446
  WS02006228           JUNCTION        1.89          2.200        0.000
  WS02006229           JUNCTION        0.81          1.048        0.022
  WS02006230           JUNCTION        1.54          1.570        0.000
  WS02006231           JUNCTION        1.58          1.482        0.048
  WS02006232           JUNCTION        1.76          1.480        0.000
  WS02006234           JUNCTION        1.63          1.240        0.000
  WS02006235           JUNCTION        1.68          1.236        0.054
  WS02006238           JUNCTION        1.69          1.227        0.203
  WS02006239           JUNCTION        1.63          1.182        0.108
  WS02006240           JUNCTION        1.60          1.390        0.000
  WS02006242           JUNCTION        1.65          0.820        0.000
  WS02006243           JUNCTION        1.54          0.753        0.017
  WS02006245           JUNCTION        1.51          0.698        0.152
  WS02006247           JUNCTION        1.51          0.609        0.151
  WS02006248           JUNCTION        1.46          0.380        0.000
  WS02006249           JUNCTION        1.48          0.390        0.000
  WS02006251           JUNCTION        1.28          1.172        0.008
  WS02006252           JUNCTION        1.47          1.100        0.000
  WS02006253           JUNCTION        1.30          1.902        0.578
  WS02006256           JUNCTION        7.98          2.050        0.000
  WS02006280           JUNCTION        0.64          0.700        0.080
  WS02006284           JUNCTION        0.55          0.670        0.130
  WS02006287           JUNCTION        0.46          0.730        0.160
  YS02001580           JUNCTION        0.40          0.450        0.000
  YS02001583           JUNCTION        0.41          0.349        0.151
  YS02001586           JUNCTION        0.54          0.510        0.000
  YS02001590           JUNCTION        0.61          0.750        0.000
  YS02001593           JUNCTION        0.61          0.716        0.124
  YS02001596           JUNCTION        0.72          0.953        0.117
  YS02001600           JUNCTION        0.86          1.190        0.000
  YS02001601           JUNCTION        1.29          1.440        0.000
  YS02001602           JUNCTION        1.13          1.270        0.000
  YS02001605           JUNCTION        1.07          1.179        0.001
  YS02001607           JUNCTION        0.59          0.660        0.020
  YS02001610           JUNCTION        0.62          0.680        0.000
  YS02001613           JUNCTION        0.59          0.690        0.010
  YS02001616           JUNCTION        0.54          0.607        0.003
  YS02001619           JUNCTION        0.53          0.601        0.009
  YS02001622           JUNCTION        0.53          0.573        0.047
  YS02001625           JUNCTION        0.71          0.780        0.000
  YS02001629           JUNCTION        0.49          0.470        0.000
  YS02001633           JUNCTION        0.73          1.012        0.048
  YS02001641           JUNCTION        0.67          0.959        0.141
  YS02001644           JUNCTION        0.64          0.920        0.000
  YS02001647           JUNCTION        0.46          0.786        0.114
  YS02001649           JUNCTION        0.57          1.015        0.035
  YS02001652           JUNCTION        0.38          0.809        0.321
  YS02001655           JUNCTION        0.24          0.744        0.456
  YS02001658           JUNCTION        0.07          0.698        0.602
  YS02001748           JUNCTION        0.01          0.503        0.687
  YS02001751           JUNCTION        0.13          0.599        0.601
  YS02001754           JUNCTION        0.29          0.641        0.509
  YS02001757           JUNCTION        0.63          0.991        0.219
  YS02001759           JUNCTION        0.54          0.997        0.213
  YS02001762           JUNCTION        0.50          1.078        0.072
  YS02001765           JUNCTION        0.46          1.072        0.028
  YS02001767           JUNCTION        0.43          1.030        0.000
  YS02001770           JUNCTION        0.39          0.920        0.000
  YS02001774           JUNCTION        0.49          1.050        0.000
  YS02001779           JUNCTION        0.29          0.680        0.000
  YS02001783           JUNCTION        0.44          0.458        1.142
  YS02001784           JUNCTION        0.44          0.540        0.950
  YS02001786           JUNCTION        0.32          0.522        0.908
  YS02001788           JUNCTION        0.09          0.448        1.032
  YS02001790           JUNCTION        0.51          0.639        0.518
  YS02001791           JUNCTION        0.59          0.581        1.339
  YS02001793           JUNCTION        0.68          0.866        1.734
  YS02001882           JUNCTION        0.30          0.666        0.164
  YS02001884           JUNCTION        0.31          0.696        0.174
  YS02001887           JUNCTION        0.34          0.766        0.184
  YS02001890           JUNCTION        0.35          0.760        0.000
  YS02001895           JUNCTION        0.29          0.566        0.184
  YS02001898           JUNCTION        0.28          0.537        0.203
  YS02001901           JUNCTION        0.33          0.693        0.177
  YS02001904           JUNCTION        0.32          0.639        0.211
  YS02001907           JUNCTION        0.56          0.950        0.000
  YS02001910           JUNCTION        0.38          0.971        0.129
  YS02001915           JUNCTION        0.30          0.917        0.083
  YS02001918           JUNCTION        0.22          0.810        0.000
  YS02001920           JUNCTION        0.23          1.140        0.000
  YS02001923           JUNCTION        0.01          0.820        0.000
  YS02001926           JUNCTION        0.01          0.900        0.000
  YS02001929           JUNCTION        0.01          0.780        0.000
  YS02006553           JUNCTION        0.58          0.974        0.216
  YS02006556           JUNCTION        0.48          0.903        0.447
  YS02006558           JUNCTION        0.46          0.885        0.515
  YS02006561           JUNCTION        0.19          0.146        1.004
  YS02163301           JUNCTION        0.71          0.936        0.094
  YS02163601           JUNCTION        0.76          1.068        0.012
  YS02164001           JUNCTION        0.68          0.965        0.135
  YSB1154              JUNCTION        0.75          1.172        0.228
  YSB1171              JUNCTION        0.75          1.100        0.000
  YSB1174              JUNCTION        0.65          1.090        0.160
  YSB6556              JUNCTION        0.59          1.032        0.068
  
  
  *********************
  Node Flooding Summary
  *********************
  
  Flooding refers to all water that overflows a node, whether it ponds or not.
  --------------------------------------------------------------------------
                                                             Total   Maximum
                                 Maximum   Time of Max       Flood    Ponded
                        Hours       Rate    Occurrence      Volume     Depth
  Node                 Flooded       LPS   days hr:min    10^6 ltr    Meters
  --------------------------------------------------------------------------
  HS02004770              0.24    531.26      0  02:02       0.269     0.000
  HS02004777              0.01     58.31      0  01:57       0.000     0.000
  HS02004785              0.01    109.61      0  01:57       0.000     0.000
  HS02004788              0.01    232.02      0  01:57       0.001     0.000
  HS02004792              0.25    947.10      0  02:02       0.478     0.000
  HS02004799              0.04     80.81      0  02:00       0.002     0.000
  HS02004842              0.01     92.92      0  02:00       0.001     0.000
  HS02004848              0.01     44.48      0  02:00       0.000     0.000
  HS02004852              0.01    172.92      0  02:00       0.000     0.000
  HS02004856              0.01    340.70      0  02:00       0.002     0.000
  HS02004862              0.01    342.76      0  02:00       0.001     0.000
  HS02004901              0.32    481.50      0  02:03       0.397     0.000
  WS02006109              0.29    205.37      0  02:02       0.126     0.000
  WS02006228              0.01      1.40      0  02:00       0.000     0.000
  WS02006230              0.56    543.20      0  02:02       0.682     0.000
  WS02006232              0.15      0.68      0  02:10       0.000     0.000
  WS02006234              0.63    128.40      0  02:23       0.172     0.000
  WS02006240              0.01     46.54      0  03:00       0.000     0.000
  WS02006242              0.74    137.58      0  02:23       0.312     0.000
  WS02006248              1.08    339.16      0  02:29       1.086     0.000
  WS02006249              1.29   1275.72      0  02:00       3.369     0.000
  WS02006252              0.25    317.25      0  02:00       0.089     0.000
  WS02006256              0.88    298.38      0  02:17       0.479     0.000
  YS02001580              0.01     97.87      0  01:57       0.000     0.000
  YS02001586              0.29    135.05      0  02:04       0.080     0.000
  YS02001590              0.01      7.63      0  01:57       0.000     0.000
  YS02001600              0.01      2.54      0  01:57       0.000     0.000
  YS02001601              0.47    701.10      0  02:03       0.659     0.000
  YS02001602              0.37     62.01      0  02:11       0.073     0.000
  YS02001610              0.31    282.43      0  02:05       0.192     0.000
  YS02001625              0.28    866.79      0  02:03       0.414     0.000
  YS02001629              0.04    106.74      0  01:57       0.006     0.000
  YS02001644              0.04    195.50      0  02:02       0.015     0.000
  YS02001767              0.01      0.69      0  02:03       0.000     0.000
  YS02001770              0.01      2.12      0  02:03       0.000     0.000
  YS02001774              0.01      0.96      0  02:03       0.000     0.000
  YS02001779              0.01    368.99      0  02:00       0.004     0.000
  YS02001890              0.02     33.30      0  02:00       0.001     0.000
  YS02001907              0.17    948.43      0  02:02       0.252     0.000
  YS02001918              0.01    207.07      0  02:01       0.003     0.000
  YS02001920              0.01     46.80      0  02:01       0.000     0.000
  YS02001923              0.01     78.90      0  02:01       0.000     0.000
  YS02001926              0.01    236.00      0  02:01       0.001     0.000
  YS02001929              0.01    182.86      0  02:01       0.000     0.000
  YSB1171                 0.12    320.14      0  02:02       0.092     0.000
  JK-storage              0.34    412.61      0  02:21       0.229     0.000
  
  
  **********************
  Storage Volume Summary
  **********************
  
  --------------------------------------------------------------------------------------------------
                         Average     Avg  Evap Exfil       Maximum     Max    Time of Max    Maximum
                          Volume    Pcnt  Pcnt  Pcnt        Volume    Pcnt     Occurrence    Outflow
  Storage Unit           1000 m3    Full  Loss  Loss       1000 m3    Full    days hr:min        LPS
  --------------------------------------------------------------------------------------------------
  CC-storage               3.107      48     0     0         4.514      70       0  02:22    1783.53
  JK-storage               0.161      55     0     0         0.291     100       0  02:21    2300.00
  XR-storage               0.955      66     0     0         1.111      77       0  08:00     380.00
  
  
  ***********************
  Outfall Loading Summary
  ***********************
  
  -----------------------------------------------------------
                         Flow       Avg       Max       Total
                         Freq      Flow      Flow      Volume
  Outfall Node           Pcnt       LPS       LPS    10^6 ltr
  -----------------------------------------------------------
  CC-1                  24.73    683.00    683.00       3.343
  CC-2                  12.53    683.00    683.00       2.044
  JK-1                  20.50    275.28   1000.00       1.257
  JK-2                  14.92    212.53   1000.00       0.723
  WSC                   99.96    565.27   1480.19      13.346
  -----------------------------------------------------------
  System                34.53   2419.09   1480.19      20.713
  
  
  ********************
  Link Flow Summary
  ********************
  
  -----------------------------------------------------------------------------
                                 Maximum  Time of Max   Maximum    Max/    Max/
                                  |Flow|   Occurrence   |Veloc|    Full    Full
  Link                 Type          LPS  days hr:min     m/sec    Flow   Depth
  -----------------------------------------------------------------------------
  1                    CONDUIT   1480.19     0  02:07      3.68    0.52    0.51
  HS02004478WS02006287 CONDUIT   2243.61     0  02:02      2.61    0.63    1.00
  HS02004479HS02004480 CONDUIT    458.06     0  02:00      0.65    0.44    1.00
  HS02004480HS02004478 CONDUIT   2120.90     0  01:58      3.03    8.93    1.00
  HS02004770HS02004777 CONDUIT    754.26     0  01:56      1.08    1.38    1.00
  HS02004777HS02004785 CONDUIT    772.62     0  01:56      1.15    0.95    1.00
  HS02004785HS02004788 CONDUIT    623.59     0  02:16      1.36    4.70    1.00
  HS02004788HS02004792 CONDUIT    808.83     0  01:57      1.42    0.54    1.00
  HS02004792HS02004799 CONDUIT   1628.60     0  01:58      2.33    1.00    1.00
  HS02004799HS02004480 CONDUIT   1774.24     0  01:58      2.53    2.24    1.00
  HS02004802HS02004478 CONDUIT    717.85     0  02:03      1.03    0.63    1.00
  HS02004807HS02004802 CONDUIT    717.28     0  02:03      1.02    1.37    1.00
  HS02004817HS02004807 CONDUIT    454.77     0  02:03      0.65    0.27    1.00
  HS02004817HS02004824 CONDUIT    453.40     0  02:03      0.65    0.20    1.00
  HS02004824HS02004830 CONDUIT    663.94     0  01:57      0.97    0.87    1.00
  HS02004830HS02004837 CONDUIT    663.40     0  01:58      1.03    0.66    1.00
  HS02004837HS02004842 CONDUIT    840.09     0  01:58      1.20    0.50    1.00
  HS02004842HS02004848 CONDUIT    839.93     0  01:58      1.34    0.49    1.00
  HS02004848HS02004852 CONDUIT   1091.90     0  01:59      1.64    1.23    1.00
  HS02004852HS02004856 CONDUIT   1099.59     0  01:59      1.57    1.26    1.00
  HS02004856HS02004862 CONDUIT   1115.51     0  01:59      1.71    1.11    1.00
  HS02004862HS02004870 CONDUIT   1217.79     0  01:59      1.95    1.32    1.00
  HS02004870HS02004876 CONDUIT   1187.90     0  02:00      1.83    0.79    1.00
  HS02004876HS02004881 CONDUIT   1342.36     0  02:00      2.37   14.28    1.00
  HS02004881HS02006253 CONDUIT   1422.40     0  02:00      2.74    0.28    1.00
  HS02004901HS02004770 CONDUIT    265.62     0  02:11      0.38    1.00    1.00
  WS02001211WS02001212 CONDUIT    207.99     0  03:13      0.54    0.16    0.68
  WS02001212WS02001213 CONDUIT    212.15     0  03:13      1.04    0.33    0.55
  WS02001213WS02003059 CONDUIT    217.90     0  03:12      0.47    0.36    0.89
  WS02003059WS02003060 CONDUIT    225.11     0  03:13      0.67    0.15    0.80
  WS02003060WS02003069 CONDUIT   1478.33     0  02:05      2.08    0.58    0.60
  WS02003066WSF200     CONDUIT   1274.34     0  02:02      3.25    0.22    0.38
  WS02003067WS02003066 CONDUIT   1274.12     0  02:02      1.98    0.41    0.56
  WS02003069WS02003072 CONDUIT   1478.28     0  02:06      1.88    0.71    0.66
  WS02003072WS02003073 CONDUIT   1478.33     0  02:06      2.04    3.19    0.61
  WS02004138WS02004139 CONDUIT    190.00     0  00:30      2.15    0.04    0.41
  WS02004139WS02001211 CONDUIT    195.50     0  03:14      0.54    0.25    0.60
  WS02004401WS02004402 CONDUIT   1274.27     0  02:02      1.62    1.53    1.00
  WS02004402WS02004403 CONDUIT   1274.01     0  02:02      1.62    1.83    1.00
  WS02004403WS02004404 CONDUIT   1274.37     0  02:02      1.62    0.92    1.00
  WS02004404WS02004405 CONDUIT   1274.81     0  02:03      1.62   12.49    1.00
  WS02004405WS02004406 CONDUIT   1276.28     0  02:03      1.62    2.52    1.00
  WS02004406WS02004407 CONDUIT   1276.32     0  02:03      1.77    0.57    0.94
  WS02004407WS02004409 CONDUIT   1274.21     0  02:02      1.78    0.45    0.94
  WS02004409WS02004410 CONDUIT   1274.27     0  02:02      1.62    1.65    1.00
  WS02004410WS02004411 CONDUIT   1274.02     0  02:02      1.62    1.74    1.00
  WS02004411WS02004412 CONDUIT   1274.13     0  02:02      1.62    1.81    1.00
  WS02004412WS02004413 CONDUIT   1273.95     0  02:02      1.62    0.85    1.00
  WS02004413WS02003067 CONDUIT   1273.76     0  02:02      1.98    0.55    0.76
  WS02006109WS02006110 CONDUIT   1117.08     0  02:16      2.22    2.15    1.00
  WS02006110WS02006113 CONDUIT   1117.27     0  02:16      2.22    1.02    1.00
  WS02006111WS02006112 CONDUIT   1117.45     0  02:16      2.22    0.53    1.00
  WS02006112WS02006115 CONDUIT   1273.96     0  02:02      1.62    0.75    1.00
  WS02006113WS02006111 CONDUIT   1117.28     0  02:15      2.62    1.34    1.00
  WS02006115WS02006116 CONDUIT   1274.46     0  02:01      1.62    1.64    1.00
  WS02006116WS02004401 CONDUIT   1273.95     0  02:01      1.62    1.76    1.00
  WS02006228WS02006109 CONDUIT   1257.56     0  02:02      2.50    5.49    1.00
  WS02006229WS02006228 CONDUIT   1258.44     0  02:02      2.50    4.17    1.00
  WS02006230WS02006229 CONDUIT    985.76     0  02:02      2.56   21.94    1.00
  WS02006231WS02006230 CONDUIT    453.28     0  02:01      1.18    6.88    1.00
  WS02006232WS02006231 CONDUIT    453.43     0  01:58      1.18    0.95    1.00
  WS02006234WS02006232 CONDUIT    453.21     0  01:59      1.41    0.92    1.00
  WS02006235WS02006234 CONDUIT    400.84     0  02:15      1.23    4.23    1.00
  WS02006238WS02006235 CONDUIT    416.27     0  02:30      1.45    0.93    1.00
  WS02006239WS02006238 CONDUIT    415.43     0  02:30      1.12    1.33    1.00
  WS02006240WS02006239 CONDUIT    415.25     0  02:22      1.26    1.31    1.00
  WS02006242WS02006240 CONDUIT    415.08     0  02:23      1.14    1.65    1.00
  WS02006243WS02006242 CONDUIT    395.76     0  03:20      1.34    0.85    1.00
  WS02006245WS02006243 CONDUIT    395.81     0  03:20      1.39    1.17    1.00
  WS02006247WS02006245 CONDUIT    395.82     0  03:20      1.37    3.14    1.00
  WS02006248WS02006247 CONDUIT    395.83     0  03:20      1.38    0.86    1.00
  WS02006249WS02006248 CONDUIT    429.69     0  03:16      1.38    2.35    1.00
  WS02006251WS02006249 CONDUIT   1336.33     0  02:00      3.47    3.85    1.00
  WS02006252WS02006251 CONDUIT    408.25     0  02:29      3.83    1.50    1.00
  WS02006253WS02006251 CONDUIT   1450.28     0  02:00      3.77    4.35    1.00
  WS02006256WS02006235 CONDUIT    288.93     0  00:00      4.23    3.06    1.00
  WS02006280WS02006229 CONDUIT   2244.47     0  02:02      4.51    0.48    1.00
  WS02006284WS02006280 CONDUIT   2243.29     0  02:02      2.96    0.94    1.00
  WS02006287WS02006284 CONDUIT   2242.77     0  02:02      2.86    1.04    1.00
  WSF200WS02003060     CONDUIT   1274.92     0  02:02      2.31    0.28    0.50
  YS02001580YS02001583 CONDUIT    116.39     0  01:57      0.68    0.45    1.00
  YS02001583YS02001586 CONDUIT    166.93     0  01:57      0.69    0.25    1.00
  YS02001586YS02001590 CONDUIT    318.22     0  02:03      1.27    0.56    1.00
  YS02001590YS02001593 CONDUIT    318.06     0  02:09      1.12    2.00    1.00
  YS02001593YS02001596 CONDUIT    318.12     0  02:03      1.73    0.50    1.00
  YS02001596YS02001600 CONDUIT    318.00     0  02:04      1.21    0.62    1.00
  YS02001600YS02001601 CONDUIT    317.96     0  02:08      1.12    0.55    1.00
  YS02001601YS02001602 CONDUIT    518.01     0  01:56      1.83    1.87    1.00
  YS02001602YS02001605 CONDUIT    517.78     0  01:56      1.83   10.96    1.00
  YS02001605YS02001607 CONDUIT    517.77     0  01:56      1.83    2.84    1.00
  YS02001607YS02001610 CONDUIT    515.93     0  01:56      0.66    0.49    1.00
  YS02001610YS02001613 CONDUIT    518.31     0  01:56      0.66    0.60    1.00
  YS02001613YS02001616 CONDUIT    521.11     0  01:56      0.67    0.45    1.00
  YS02001616YS02001619 CONDUIT    508.52     0  01:57      0.66    0.88    1.00
  YS02001619YS02001622 CONDUIT    937.68     0  01:57      1.19    1.38    1.00
  YS02001622YS02001625 CONDUIT    944.01     0  01:57      1.20    0.50    1.00
  YS02001625YS02001629 CONDUIT    945.32     0  01:57      1.20    0.45    1.00
  YS02001629YS02163301 CONDUIT    929.77     0  01:59      1.18    1.14    1.00
  YS02001633YS02163601 CONDUIT   1373.58     0  01:59      1.75    1.44    1.00
  YS02001641YS02001644 CONDUIT   1373.97     0  01:59      1.75    4.44    1.00
  YS02001644YS02001647 CONDUIT   1773.46     0  01:59      2.27    1.04    1.00
  YS02001647YS02001649 CONDUIT   1787.85     0  01:59      2.34    0.94    1.00
  YS02001649YS02001757 CONDUIT   1953.11     0  01:59      2.49    1.19    1.00
  YS02001652YS02001649 CONDUIT    642.62     0  02:02      0.82    0.32    1.00
  YS02001655YS02001652 CONDUIT    640.25     0  02:02      1.31    0.31    1.00
  YS02001658YS02001655 CONDUIT    638.44     0  02:02      1.93    0.27    1.00
  YS02001661YS02001658 CONDUIT    636.30     0  02:02      2.32    0.25    0.99
  YS02001664YS02001661 CONDUIT    739.77     0  02:02      2.28    0.23    0.70
  YS02001745YS02001748 CONDUIT    559.70     0  02:01      2.13    0.22    0.84
  YS02001748YS02001751 CONDUIT    366.75     0  02:02      1.67    0.19    1.00
  YS02001751YS02001754 CONDUIT    366.27     0  02:02      1.44    0.18    1.00
  YS02001754YS02001757 CONDUIT    367.99     0  02:02      0.50    0.15    1.00
  YS02001757CaochengTiaoxuchi CONDUIT   3067.55     0  02:02      3.91    1.33    1.00
  YS02001759YS02001757 CONDUIT   1119.81     0  02:01      1.43    0.80    1.00
  YS02001762YS02001759 CONDUIT    660.48     0  02:01      0.84    0.76    1.00
  YS02001765YS02001762 CONDUIT    654.93     0  02:01      0.83    0.61    1.00
  YS02001767YS02001765 CONDUIT    649.70     0  02:01      0.83    0.82    1.00
  YS02001770YS02001767 CONDUIT    645.09     0  02:01      0.82    2.56    1.00
  YS02001774YS02001770 CONDUIT    435.56     0  02:00      0.55    0.28    1.00
  YS02001779YS02001774 CONDUIT    444.02     0  02:00      0.57    0.22    1.00
  YS02001783YS02001784 CONDUIT   1150.28     0  02:01      2.29    1.59    1.00
  YS02001784YS02001785 CONDUIT   1150.91     0  02:01      2.29    2.68    1.00
  YS02001786YS02001788 CONDUIT   1151.67     0  02:01      2.46    2.22    1.00
  YS02001788YS02001790 CONDUIT   1166.69     0  02:01      2.71    0.86    1.00
  YS02001790YS02001791 CONDUIT   1280.70     0  02:02      3.43    1.39    1.00
  YS02001791YS02001793 CONDUIT   1232.93     0  02:05      6.77    0.53    1.00
  YS02001793JiankangQianchi CONDUIT   1235.22     0  03:00      2.48    0.10    1.00
  YS02001882YS02001884 CONDUIT     64.56     0  01:59      0.13    0.07    1.00
  YS02001884YS02001887 CONDUIT     73.53     0  01:57      0.10    0.10    1.00
  YS02001887YS02001890 CONDUIT    489.70     0  02:01      0.62    0.84    1.00
  YS02001890YS02001895 CONDUIT    487.64     0  02:01      0.62    0.23    1.00
  YS02001895YS02001898 CONDUIT    487.07     0  02:01      0.62    0.85    1.00
  YS02001898YS02001901 CONDUIT    487.85     0  02:01      0.62    0.31    1.00
  YS02001901YS02001904 CONDUIT    487.85     0  02:01      0.62    0.76    1.00
  YS02001904YS02001907 CONDUIT    487.84     0  02:01      0.62    0.17    1.00
  YS02001907YS02006553 CONDUIT    786.41     0  02:12      0.87    0.93    1.00
  YS02001910YS02001907 CONDUIT    981.64     0  02:02      1.25    0.55    1.00
  YS02001915YS02001910 CONDUIT    981.90     0  02:02      1.25    0.49    1.00
  YS02001918YS02001915 CONDUIT    459.59     0  02:02      0.59    0.25    1.00
  YS02001920YS02001918 CONDUIT    460.30     0  02:02      0.64    0.45    1.00
  YS02001923YS02001920 CONDUIT    457.51     0  02:02      0.72    0.21    1.00
  YS02001926YS02001923 CONDUIT    414.96     0  02:01      0.99    0.59    1.00
  YS02001929YS02001926 CONDUIT    411.73     0  02:01      1.17    0.20    1.00
  YS02006553YS02006556 CONDUIT    786.41     0  02:11      1.00    0.67    1.00
  YS02006556YS02006558 CONDUIT    787.51     0  02:12      1.00    0.62    1.00
  YS02006558YS02006561 CONDUIT   1153.06     0  02:00      4.08    2.55    1.00
  YS02006561YS02001783 CONDUIT   1149.87     0  02:01      2.29    0.60    1.00
  YS02163301YS02001633 CONDUIT    929.77     0  01:59      1.18    0.87    1.00
  YS02163601YS02164001 CONDUIT   1373.52     0  01:59      1.75    1.22    1.00
  YS02164001YS02001641 CONDUIT   1372.31     0  01:59      1.75    1.87    1.00
  YSB1154YSB6556       CONDUIT    273.25     0  02:02      0.71    0.49    1.00
  YSB1171HS02004479    CONDUIT    456.04     0  02:00      0.91    0.30    1.00
  YSB1174YSB1171       CONDUIT    231.69     0  02:01      0.60    0.35    1.00
  YSB6556YSB1171       CONDUIT    273.35     0  02:02      0.71    0.28    1.00
  CC-R1                PUMP       683.00     0  00:00              1.00
  CC-R2                PUMP       683.00     0  00:00              1.00
  CC-S1                PUMP       200.00     0  00:00              1.00
  CC-S2                PUMP       200.00     0  00:00              1.00
  JK-R1                PUMP      1000.00     0  00:00              1.00
  JK-R2                PUMP      1000.00     0  00:00              1.00
  JK-S                 PUMP       300.00     0  00:00              1.00
  XR-1                 PUMP        95.00     0  00:00              1.00
  XR-2                 PUMP        95.00     0  00:00              1.00
  XR-3                 PUMP        95.00     0  00:00              1.00
  XR-4                 PUMP        95.00     0  00:00              1.00
  
  
  ***************************
  Flow Classification Summary
  ***************************
  
  -------------------------------------------------------------------------------------
                      Adjusted    ---------- Fraction of Time in Flow Class ---------- 
                       /Actual         Up    Down  Sub   Sup   Up    Down  Norm  Inlet 
  Conduit               Length    Dry  Dry   Dry   Crit  Crit  Crit  Crit  Ltd   Ctrl  
  -------------------------------------------------------------------------------------
  1                       1.00   0.00  0.00  0.00  0.00  1.00  0.00  0.00  0.33  0.00
  HS02004478WS02006287    1.00   0.12  0.00  0.00  0.59  0.29  0.00  0.00  0.60  0.00
  HS02004479HS02004480    1.00   0.03  0.00  0.00  0.97  0.00  0.00  0.00  0.11  0.00
  HS02004480HS02004478    1.00   0.09  0.00  0.00  0.54  0.00  0.00  0.37  0.00  0.00
  HS02004770HS02004777    1.00   0.00  0.09  0.00  0.91  0.00  0.00  0.00  0.03  0.00
  HS02004777HS02004785    1.00   0.00  0.00  0.00  1.00  0.00  0.00  0.00  0.12  0.00
  HS02004785HS02004788    1.00   0.00  0.00  0.00  1.00  0.00  0.00  0.00  0.00  0.00
  HS02004788HS02004792    1.00   0.00  0.00  0.00  0.99  0.01  0.00  0.00  0.92  0.00
  HS02004792HS02004799    1.00   0.00  0.00  0.00  0.99  0.01  0.00  0.00  0.87  0.00
  HS02004799HS02004480    1.00   0.00  0.03  0.00  0.89  0.00  0.09  0.00  0.00  0.00
  HS02004802HS02004478    1.00   0.09  0.00  0.00  0.90  0.00  0.00  0.00  0.02  0.00
  HS02004807HS02004802    1.00   0.09  0.00  0.00  0.89  0.00  0.00  0.02  0.00  0.00
  HS02004817HS02004807    1.00   0.00  0.09  0.00  0.91  0.00  0.00  0.00  0.01  0.00
  HS02004817HS02004824    1.00   0.00  0.00  0.00  1.00  0.00  0.00  0.00  0.82  0.00
  HS02004824HS02004830    1.00   0.00  0.00  0.00  1.00  0.00  0.00  0.00  0.01  0.00
  HS02004830HS02004837    1.00   0.00  0.00  0.00  1.00  0.00  0.00  0.00  0.90  0.00
  HS02004837HS02004842    1.00   0.00  0.00  0.00  1.00  0.00  0.00  0.00  0.11  0.00
  HS02004842HS02004848    1.00   0.00  0.09  0.00  0.91  0.00  0.00  0.00  0.58  0.00
  HS02004848HS02004852    1.00   0.09  0.00  0.00  0.91  0.00  0.00  0.00  0.72  0.00
  HS02004852HS02004856    1.00   0.09  0.01  0.00  0.90  0.00  0.00  0.00  0.68  0.00
  HS02004856HS02004862    1.00   0.00  0.12  0.00  0.88  0.00  0.00  0.00  0.76  0.00
  HS02004862HS02004870    1.00   0.00  0.00  0.00  1.00  0.00  0.00  0.00  0.03  0.00
  HS02004870HS02004876    1.00   0.00  0.00  0.00  0.99  0.01  0.00  0.00  0.87  0.00
  HS02004876HS02004881    1.00   0.02  0.00  0.00  0.76  0.23  0.00  0.00  0.00  0.00
  HS02004881HS02006253    1.00   0.03  0.01  0.00  0.38  0.02  0.00  0.57  0.17  0.00
  HS02004901HS02004770    1.00   0.09  0.00  0.00  0.91  0.00  0.00  0.00  0.00  0.00
  WS02001211WS02001212    1.00   0.00  0.02  0.00  0.98  0.00  0.00  0.00  0.00  0.00
  WS02001212WS02001213    1.00   0.02  0.00  0.00  0.38  0.00  0.59  0.00  0.00  0.00
  WS02001213WS02003059    1.00   0.00  0.00  0.00  0.99  0.00  0.00  0.00  0.00  0.00
  WS02003059WS02003060    1.00   0.00  0.00  0.00  1.00  0.00  0.00  0.00  0.03  0.00
  WS02003060WS02003069    1.00   0.00  0.00  0.00  0.99  0.01  0.00  0.00  0.50  0.00
  WS02003066WSF200        1.00   0.09  0.00  0.00  0.00  0.91  0.00  0.00  0.63  0.00
  WS02003067WS02003066    1.00   0.07  0.01  0.00  0.91  0.00  0.00  0.00  0.00  0.00
  WS02003069WS02003072    1.00   0.00  0.00  0.00  1.00  0.00  0.00  0.00  0.70  0.00
  WS02003072WS02003073    1.00   0.00  0.00  0.00  0.00  0.00  0.00  1.00  0.00  0.00
  WS02004138WS02004139    1.00   0.00  0.00  0.00  0.98  0.00  0.00  0.01  0.98  0.00
  WS02004139WS02001211    1.00   0.00  0.00  0.00  1.00  0.00  0.00  0.00  0.00  0.00
  WS02004401WS02004402    1.00   0.02  0.00  0.00  0.98  0.00  0.00  0.00  0.00  0.00
  WS02004402WS02004403    1.00   0.02  0.00  0.00  0.98  0.00  0.00  0.00  0.00  0.00
  WS02004403WS02004404    1.00   0.00  0.02  0.00  0.98  0.00  0.00  0.00  0.00  0.00
  WS02004404WS02004405    1.00   0.00  0.00  0.00  1.00  0.00  0.00  0.00  0.00  0.00
  WS02004405WS02004406    1.00   0.00  0.00  0.00  1.00  0.00  0.00  0.00  0.00  0.00
  WS02004406WS02004407    1.00   0.00  0.04  0.00  0.96  0.00  0.00  0.00  0.00  0.00
  WS02004407WS02004409    1.00   0.04  0.00  0.00  0.96  0.01  0.00  0.00  0.83  0.00
  WS02004409WS02004410    1.00   0.04  0.00  0.00  0.96  0.00  0.00  0.00  0.02  0.00
  WS02004410WS02004411    1.00   0.04  0.00  0.00  0.96  0.00  0.00  0.00  0.00  0.00
  WS02004411WS02004412    1.00   0.04  0.00  0.00  0.96  0.00  0.00  0.00  0.00  0.00
  WS02004412WS02004413    1.00   0.04  0.00  0.00  0.96  0.00  0.00  0.00  0.01  0.00
  WS02004413WS02003067    1.00   0.04  0.03  0.00  0.00  0.00  0.93  0.00  0.00  0.00
  WS02006109WS02006110    1.00   0.00  0.01  0.00  0.99  0.00  0.01  0.00  0.00  0.00
  WS02006110WS02006113    1.00   0.01  0.01  0.00  0.99  0.00  0.00  0.00  0.00  0.00
  WS02006111WS02006112    1.00   0.02  0.00  0.00  0.98  0.00  0.00  0.00  0.79  0.00
  WS02006112WS02006115    1.00   0.02  0.00  0.00  0.98  0.00  0.00  0.00  0.00  0.00
  WS02006113WS02006111    1.00   0.01  0.00  0.00  0.23  0.75  0.00  0.00  0.07  0.00
  WS02006115WS02006116    1.00   0.02  0.00  0.00  0.98  0.00  0.00  0.01  0.00  0.00
  WS02006116WS02004401    1.00   0.02  0.00  0.00  0.98  0.00  0.00  0.00  0.00  0.00
  WS02006228WS02006109    1.00   0.00  0.00  0.00  1.00  0.00  0.00  0.00  0.00  0.00
  WS02006229WS02006228    1.00   0.00  0.00  0.00  0.99  0.00  0.00  0.01  0.00  0.00
  WS02006230WS02006229    1.00   0.00  0.00  0.00  0.99  0.00  0.00  0.01  0.01  0.00
  WS02006231WS02006230    1.00   0.00  0.00  0.00  0.41  0.00  0.59  0.00  0.00  0.00
  WS02006232WS02006231    1.00   0.00  0.00  0.00  0.99  0.00  0.00  0.00  0.00  0.00
  WS02006234WS02006232    1.00   0.00  0.00  0.00  1.00  0.00  0.00  0.00  0.00  0.00
  WS02006235WS02006234    1.00   0.00  0.00  0.00  0.82  0.00  0.18  0.00  0.00  0.00
  WS02006238WS02006235    1.00   0.00  0.00  0.00  1.00  0.00  0.00  0.00  0.00  0.00
  WS02006239WS02006238    1.00   0.00  0.00  0.00  1.00  0.00  0.00  0.00  0.05  0.00
  WS02006240WS02006239    1.00   0.00  0.00  0.00  0.60  0.00  0.00  0.40  0.01  0.00
  WS02006242WS02006240    1.00   0.00  0.00  0.00  0.99  0.00  0.01  0.00  0.00  0.00
  WS02006243WS02006242    1.00   0.00  0.00  0.00  0.99  0.00  0.00  0.01  0.67  0.00
[...]
  WSF200WS02003060        1.00   0.00  0.09  0.00  0.55  0.37  0.00  0.00  0.61  0.00
  YS02001580YS02001583    1.00   0.22  0.53  0.00  0.25  0.00  0.00  0.00  0.68  0.00
  YS02001583YS02001586    1.00   0.39  0.28  0.00  0.33  0.00  0.00  0.00  0.69  0.00
  YS02001586YS02001590    1.00   0.09  0.00  0.00  0.52  0.03  0.00  0.36  0.34  0.00
  YS02001590YS02001593    1.00   0.09  0.01  0.00  0.12  0.00  0.79  0.00  0.00  0.00
  YS02001593YS02001596    1.00   0.10  0.00  0.00  0.14  0.01  0.00  0.75  0.02  0.00
  YS02001596YS02001600    1.00   0.10  0.00  0.00  0.24  0.03  0.00  0.63  0.06  0.00
  YS02001600YS02001601    1.00   0.09  0.01  0.00  0.90  0.00  0.00  0.00  0.62  0.00
  YS02001601YS02001602    1.00   0.09  0.01  0.00  0.90  0.00  0.00  0.00  0.00  0.00
  YS02001602YS02001605    1.00   0.10  0.00  0.00  0.90  0.00  0.00  0.00  0.00  0.00
  YS02001605YS02001607    1.00   0.10  0.00  0.00  0.90  0.00  0.00  0.00  0.00  0.00
  YS02001607YS02001610    1.00   0.10  0.00  0.00  0.90  0.00  0.00  0.00  0.01  0.00
  YS02001610YS02001613    1.00   0.09  0.00  0.00  0.91  0.00  0.00  0.00  0.00  0.00
  YS02001613YS02001616    1.00   0.09  0.00  0.00  0.91  0.00  0.00  0.00  0.00  0.00
  YS02001616YS02001619    1.00   0.09  0.00  0.00  0.91  0.00  0.00  0.00  0.00  0.00
  YS02001619YS02001622    1.00   0.09  0.00  0.00  0.91  0.00  0.00  0.00  0.35  0.00
  YS02001622YS02001625    1.00   0.09  0.00  0.00  0.91  0.00  0.00  0.00  0.04  0.00
  YS02001625YS02001629    1.00   0.09  0.04  0.00  0.17  0.00  0.70  0.00  0.00  0.00
  YS02001629YS02163301    1.00   0.11  0.01  0.00  0.88  0.00  0.00  0.00  0.00  0.00
  YS02001633YS02163601    1.00   0.00  0.00  0.00  1.00  0.00  0.00  0.00  0.15  0.00
  YS02001641YS02001644    1.00   0.00  0.00  0.00  1.00  0.00  0.00  0.00  0.00  0.00
  YS02001644YS02001647    1.00   0.00  0.12  0.00  0.88  0.00  0.00  0.00  0.00  0.00
  YS02001647YS02001649    1.00   0.00  0.12  0.00  0.78  0.10  0.00  0.00  0.18  0.00
  YS02001649YS02001757    1.00   0.00  0.00  0.00  0.94  0.06  0.00  0.00  0.18  0.00
  YS02001652YS02001649    1.00   0.00  0.00  0.00  0.97  0.03  0.00  0.00  0.18  0.00
  YS02001655YS02001652    1.00   0.00  0.00  0.00  0.72  0.03  0.00  0.25  0.62  0.00
  YS02001658YS02001655    1.00   0.00  0.10  0.00  0.57  0.33  0.00  0.00  0.72  0.00
  YS02001661YS02001658    1.00   0.10  0.00  0.00  0.45  0.45  0.00  0.00  0.71  0.00
  YS02001664YS02001661    1.00   0.09  0.00  0.00  0.76  0.15  0.00  0.00  0.86  0.00
  YS02001745YS02001748    1.00   0.00  0.00  0.00  0.09  0.01  0.00  0.90  0.04  0.00
  YS02001748YS02001751    1.00   0.00  0.00  0.00  0.73  0.27  0.00  0.00  0.77  0.00
  YS02001751YS02001754    1.00   0.00  0.00  0.00  0.65  0.04  0.00  0.31  0.56  0.00
  YS02001754YS02001757    1.00   0.00  0.00  0.00  1.00  0.00  0.00  0.00  0.24  0.00
  YS02001757CaochengTiaoxuchi    1.00   0.00  0.00  0.00  1.00  0.00  0.00  0.00  0.23  0.00
  YS02001759YS02001757    1.00   0.00  0.00  0.00  1.00  0.00  0.00  0.00  0.06  0.00
  YS02001762YS02001759    1.00   0.00  0.00  0.00  1.00  0.00  0.00  0.00  0.04  0.00
  YS02001765YS02001762    1.00   0.00  0.00  0.00  1.00  0.00  0.00  0.00  0.14  0.00
  YS02001767YS02001765    1.00   0.00  0.00  0.00  1.00  0.00  0.00  0.00  0.00  0.00
  YS02001770YS02001767    1.00   0.00  0.00  0.00  1.00  0.00  0.00  0.00  0.00  0.00
  YS02001774YS02001770    1.00   0.00  0.09  0.00  0.90  0.00  0.00  0.00  0.03  0.00
  YS02001779YS02001774    1.00   0.00  0.00  0.00  1.00  0.00  0.00  0.00  0.74  0.00
  YS02001783YS02001784    1.00   0.00  0.13  0.00  0.87  0.00  0.00  0.00  0.57  0.00
  YS02001784YS02001785    1.00   0.00  0.00  0.00  1.00  0.00  0.00  0.00  0.17  0.00
  YS02001786YS02001788    1.00   0.00  0.00  0.00  0.76  0.24  0.00  0.00  0.00  0.00
  YS02001788YS02001790    1.00   0.00  0.00  0.00  0.26  0.74  0.00  0.00  0.82  0.00
  YS02001790YS02001791    1.00   0.00  0.00  0.00  0.12  0.88  0.00  0.00  0.09  0.00
  YS02001791YS02001793    1.00   0.00  0.00  0.00  0.11  0.89  0.00  0.00  0.01  0.00
  YS02001793JiankangQianchi    1.00   0.00  0.00  0.00  0.98  0.02  0.00  0.00  0.89  0.00
  YS02001882YS02001884    1.00   0.11  0.01  0.00  0.88  0.00  0.00  0.00  0.00  0.00
  YS02001884YS02001887    1.00   0.05  0.04  0.00  0.92  0.00  0.00  0.00  0.00  0.00
  YS02001887YS02001890    1.00   0.00  0.00  0.00  0.98  0.00  0.02  0.00  0.00  0.00
  YS02001890YS02001895    1.00   0.00  0.12  0.00  0.88  0.00  0.00  0.00  0.00  0.00
  YS02001895YS02001898    1.00   0.12  0.00  0.00  0.86  0.00  0.01  0.00  0.00  0.00
  YS02001898YS02001901    1.00   0.12  0.00  0.00  0.88  0.00  0.00  0.00  0.01  0.00
  YS02001901YS02001904    1.00   0.12  0.00  0.00  0.88  0.00  0.00  0.00  0.00  0.00
  YS02001904YS02001907    1.00   0.00  0.12  0.00  0.88  0.00  0.00  0.00  0.00  0.00
  YS02001907YS02006553    1.00   0.00  0.02  0.00  0.98  0.00  0.00  0.00  0.00  0.00
  YS02001910YS02001907    1.00   0.00  0.00  0.00  0.98  0.00  0.00  0.02  0.12  0.00
  YS02001915YS02001910    1.00   0.00  0.00  0.00  0.97  0.03  0.00  0.00  0.16  0.00
  YS02001918YS02001915    1.00   0.00  0.00  0.00  0.98  0.01  0.00  0.00  0.78  0.00
  YS02001920YS02001918    1.00   0.00  0.00  0.00  1.00  0.00  0.00  0.00  0.00  0.00
  YS02001923YS02001920    1.00   0.00  0.00  0.00  1.00  0.00  0.00  0.00  0.94  0.00
  YS02001926YS02001923    1.00   0.00  0.05  0.00  0.04  0.00  0.91  0.00  0.00  0.00
  YS02001929YS02001926    1.00   0.00  0.09  0.00  0.91  0.00  0.00  0.00  0.84  0.00
  YS02006553YS02006556    1.00   0.01  0.00  0.00  0.99  0.00  0.00  0.00  0.03  0.00
  YS02006556YS02006558    1.00   0.00  0.00  0.00  1.00  0.00  0.00  0.00  0.00  0.00
  YS02006558YS02006561    1.00   0.13  0.00  0.00  0.04  0.83  0.00  0.00  0.19  0.00
  YS02006561YS02001783    1.00   0.13  0.00  0.00  0.15  0.72  0.00  0.00  0.73  0.00
  YS02163301YS02001633    1.00   0.00  0.11  0.00  0.89  0.00  0.00  0.00  0.00  0.00
  YS02163601YS02164001    1.00   0.00  0.06  0.00  0.94  0.00  0.00  0.00  0.00  0.00
  YS02164001YS02001641    1.00   0.00  0.05  0.00  0.94  0.00  0.00  0.00  0.05  0.00
  YSB1154YSB6556          1.00   0.09  0.00  0.00  0.91  0.00  0.00  0.00  0.02  0.00
  YSB1171HS02004479       1.00   0.03  0.00  0.00  0.96  0.00  0.00  0.01  0.10  0.00
  YSB1174YSB1171          1.00   0.04  0.03  0.00  0.93  0.00  0.00  0.00  0.00  0.00
  YSB6556YSB1171          1.00   0.03  0.06  0.00  0.91  0.00  0.00  0.00  0.00  0.00
  
  
  *************************
  Conduit Surcharge Summary
  *************************
  
  ----------------------------------------------------------------------------
                                                           Hours        Hours 
                         --------- Hours Full --------   Above Full   Capacity
  Conduit                Both Ends  Upstream  Dnstream   Normal Flow   Limited
  ----------------------------------------------------------------------------
  HS02004478WS02006287        0.36      0.36      0.53      0.01         0.01
  HS02004479HS02004480        0.54      0.54      0.56      0.01         0.01
  HS02004480HS02004478        0.47      0.53      0.47      1.64         0.47
  HS02004770HS02004777        0.44      0.44      0.44      0.11         0.07
  HS02004777HS02004785        0.39      0.39      0.44      0.01         0.01
  HS02004785HS02004788        0.38      0.39      0.38      1.40         0.37
  HS02004788HS02004792        0.38      0.38      0.50      0.01         0.01
  HS02004792HS02004799        0.50      0.50      0.62      0.01         0.02
  HS02004799HS02004480        0.53      0.53      0.62      0.73         0.01
  HS02004802HS02004478        0.48      0.48      0.54      0.01         0.01
  HS02004807HS02004802        0.51      0.51      0.53      0.11         0.11
  HS02004817HS02004807        0.51      0.51      1.12      0.01         0.01
  HS02004817HS02004824        0.38      0.38      1.12      0.01         0.01
  HS02004824HS02004830        0.35      0.35      0.38      0.01         0.01
  HS02004830HS02004837        0.31      0.31      0.35      0.01         0.01
  HS02004837HS02004842        0.31      0.31      0.45      0.01         0.01
  HS02004842HS02004848        0.28      0.28      0.45      0.01         0.01
  HS02004848HS02004852        0.28      0.28      0.30      0.03         0.01
  HS02004852HS02004856        0.30      0.30      0.32      0.02         0.01
  HS02004856HS02004862        0.29      0.29      0.32      0.01         0.01
  HS02004862HS02004870        0.32      0.32      0.34      0.03         0.02
  HS02004870HS02004876        0.34      0.34      0.41      0.01         0.01
  HS02004876HS02004881        0.39      0.41      0.39      1.40         0.39
  HS02004881HS02006253        0.39      0.39      1.30      0.01         0.01
  HS02004901HS02004770        0.44      0.44      0.45      0.01         0.01
  WS02003072WS02003073        0.01      0.01      0.01      2.11         0.01
  WS02004401WS02004402        1.40      1.40      1.42      1.28         1.27
  WS02004402WS02004403        1.42      1.42      1.43      1.40         1.39
  WS02004403WS02004404        1.43      1.43      1.53      0.01         0.01
  WS02004404WS02004405        1.50      1.53      1.50      2.92         1.50
  WS02004405WS02004406        1.48      1.50      1.48      1.74         1.48
  WS02004406WS02004407        0.01      0.01      1.48      0.01         0.01
  WS02004407WS02004409        0.01      0.01      0.89      0.01         0.01
  WS02004409WS02004410        0.84      0.89      0.84      1.34         0.84
  WS02004410WS02004411        0.76      0.84      0.76      1.37         0.76
  WS02004411WS02004412        0.65      0.76      0.65      1.40         0.65
  WS02004412WS02004413        0.65      0.65      1.21      0.01         0.01
  WS02004413WS02003067        0.01      0.01      1.21      0.01         0.01
  WS02006109WS02006110        1.71      1.71      1.92      1.71         0.01
  WS02006110WS02006113        1.20      1.20      1.91      0.23         0.01
  WS02006111WS02006112        1.19      1.19      2.05      0.01         0.01
  WS02006112WS02006115        1.35      1.35      1.77      0.01         0.01
  WS02006113WS02006111        1.20      1.20      1.20      1.24         1.20
  WS02006115WS02006116        1.35      1.35      1.36      1.33         1.32
  WS02006116WS02004401        1.40      1.40      1.40      1.38         1.37
  WS02006228WS02006109        1.90      1.92      1.90      2.14         1.90
  WS02006229WS02006228        1.89      1.90      1.89      2.03         1.89
  WS02006230WS02006229        1.94      1.95      1.94      2.95         0.95
  WS02006231WS02006230        1.54      1.54      1.60      2.39         0.86
  WS02006232WS02006231        1.58      1.58      1.76      0.01         0.12
  WS02006234WS02006232        1.67      1.67      1.76      0.01         0.01
  WS02006235WS02006234        1.63      1.63      1.68      2.02         0.83
  WS02006238WS02006235        1.68      1.68      1.71      0.01         0.28
  WS02006239WS02006238        1.68      1.68      1.69      0.84         0.13
  WS02006240WS02006239        1.61      1.61      1.63      0.82         0.10
  WS02006242WS02006240        1.60      1.60      1.68      1.23         0.77
  WS02006243WS02006242        1.55      1.55      1.65      0.01         0.01
  WS02006245WS02006243        1.52      1.52      1.54      0.12         0.07
  WS02006247WS02006245        1.50      1.52      1.51      1.56         0.34
  WS02006248WS02006247        1.47      1.47      1.51      0.01         0.01
  WS02006249WS02006248        1.46      1.46      1.48      0.59         0.01
  WS02006251WS02006249        1.46      1.46      1.48      1.25         1.19
  WS02006252WS02006251        1.41      1.41      1.47      0.92         0.01
  WS02006253WS02006251        1.46      1.46      1.48      0.65         0.02
  WS02006256WS02006235        2.53      2.55      7.97      0.64         0.01
  WS02006280WS02006229        0.65      0.65      0.81      0.01         0.01
  WS02006284WS02006280        0.55      0.55      0.64      0.01         0.01
  WS02006287WS02006284        0.46      0.46      0.56      0.15         0.15
  YS02001580YS02001583        0.40      0.40      0.45      0.01         0.01
  YS02001583YS02001586        0.41      0.41      0.54      0.01         0.01
  YS02001586YS02001590        0.54      0.54      0.61      0.01         0.01
  YS02001590YS02001593        0.61      0.61      0.63      0.65         0.01
  YS02001593YS02001596        0.62      0.62      0.72      0.01         0.01
  YS02001596YS02001600        0.76      0.76      0.86      0.01         0.01
  YS02001600YS02001601        0.93      0.93      1.29      0.01         0.01
  YS02001601YS02001602        1.13      1.13      1.34      0.87         0.01
  YS02001602YS02001605        1.07      1.07      1.13      2.08         0.01
  YS02001605YS02001607        1.01      1.07      1.01      1.22         1.01
  YS02001607YS02001610        0.59      0.59      0.62      0.01         0.01
  YS02001610YS02001613        0.59      0.59      0.62      0.01         0.01
  YS02001613YS02001616        0.54      0.54      0.59      0.01         0.01
  YS02001616YS02001619        0.53      0.53      0.54      0.01         0.01
  YS02001619YS02001622        0.53      0.53      0.53      0.61         0.48
  YS02001622YS02001625        0.53      0.53      0.71      0.01         0.01
  YS02001625YS02001629        0.49      0.49      0.71      0.01         0.01
  YS02001629YS02163301        0.70      0.70      0.71      0.04         0.12
  YS02001633YS02163601        0.73      0.73      0.76      0.31         0.30
  YS02001641YS02001644        0.64      0.67      0.64      1.38         0.64
  YS02001644YS02001647        0.46      0.46      0.64      0.02         0.01
  YS02001647YS02001649        0.46      0.46      0.57      0.01         0.01
  YS02001649YS02001757        0.56      0.57      0.63      0.06         0.04
  YS02001652YS02001649        0.40      0.40      0.57      0.01         0.01
  YS02001655YS02001652        0.24      0.24      0.38      0.01         0.01
  YS02001658YS02001655        0.07      0.07      0.24      0.01         0.01
  YS02001661YS02001658        0.01      0.01      0.07      0.01         0.01
  YS02001664YS02001661        0.01      0.01      0.01      0.01         0.01
  YS02001745YS02001748        0.01      0.01      0.01      0.01         0.01
  YS02001748YS02001751        0.03      0.03      0.13      0.01         0.01
  YS02001751YS02001754        0.13      0.13      0.29      0.01         0.01
  YS02001754YS02001757        0.34      0.34      0.63      0.01         0.01
  YS02001757CaochengTiaoxuchi        0.63      0.63      6.08      0.20         0.19
  YS02001759YS02001757        0.54      0.54      0.63      0.01         0.01
  YS02001762YS02001759        0.50      0.50      0.54      0.01         0.02
  YS02001765YS02001762        0.46      0.46      0.50      0.01         0.01
  YS02001767YS02001765        0.43      0.43      0.46      0.01         0.02
  YS02001770YS02001767        0.43      0.43      0.43      0.34         0.27
  YS02001774YS02001770        0.39      0.39      0.49      0.01         0.01
  YS02001779YS02001774        0.29      0.29      0.49      0.01         0.01
  YS02001783YS02001784        0.42      0.44      0.44      0.43         0.36
  YS02001784YS02001785        0.32      0.44      0.32      0.71         0.32
  YS02001786YS02001788        0.09      0.32      0.09      0.60         0.09
  YS02001788YS02001790        0.09      0.09      0.51      0.01         0.01
  YS02001790YS02001791        0.51      0.51      0.59      0.31         0.01
  YS02001791YS02001793        0.59      0.59      0.69      0.01         0.01
  YS02001793JiankangQianchi        0.68      0.68      7.70      0.01         0.01
  YS02001882YS02001884        0.30      0.30      0.31      0.01         0.01
  YS02001884YS02001887        0.33      0.33      0.34      0.01         0.01
  YS02001887YS02001890        0.35      0.35      0.37      0.01         0.01
  YS02001890YS02001895        0.29      0.29      0.38      0.01         0.01
  YS02001895YS02001898        0.28      0.28      0.29      0.01         0.01
  YS02001898YS02001901        0.29      0.29      0.33      0.01         0.01
  YS02001901YS02001904        0.32      0.32      0.33      0.01         0.01
  YS02001904YS02001907        0.32      0.32      0.58      0.01         0.01
  YS02001907YS02006553        0.71      0.71      0.78      0.01         0.01
  YS02001910YS02001907        0.38      0.38      0.56      0.01         0.01
  YS02001915YS02001910        0.30      0.30      0.38      0.01         0.01
  YS02001918YS02001915        0.22      0.22      0.30      0.01         0.01
  YS02001920YS02001918        0.22      0.22      0.23      0.01         0.01
  YS02001923YS02001920        0.17      0.17      0.23      0.01         0.01
  YS02001926YS02001923        0.01      0.01      0.01      0.01         0.01
  YS02001929YS02001926        0.01      0.01      0.01      0.01         0.01
  YS02006553YS02006556        0.48      0.48      0.58      0.01         0.01
  YS02006556YS02006558        0.52      0.52      0.59      0.01         0.01
  YS02006558YS02006561        0.26      0.46      0.26      0.66         0.26
  YS02006561YS02001783        0.19      0.19      0.44      0.01         0.01
  YS02163301YS02001633        0.71      0.71      0.75      0.01         0.01
  YS02163601YS02164001        0.68      0.68      0.76      0.06         0.01
  YS02164001YS02001641        0.67      0.68      0.67      0.66         0.59
  YSB1154YSB6556              0.59      0.59      0.75      0.01         0.01
  YSB1171HS02004479           0.49      0.49      0.75      0.01         0.01
  YSB1174YSB1171              0.65      0.65      1.02      0.01         0.01
  YSB6556YSB1171              0.59      0.59      1.22      0.01         0.01
  
  
  ***************
  Pumping Summary
  ***************
  
  ---------------------------------------------------------------------------------------------------------
                                                  Min       Avg       Max     Total     Power    % Time Off
                        Percent   Number of      Flow      Flow      Flow    Volume     Usage    Pump Curve
  Pump                 Utilized   Start-Ups       LPS       LPS       LPS  10^6 ltr     Kw-hr    Low   High
  ---------------------------------------------------------------------------------------------------------
  CC-R1                   16.99           3      0.00    683.00    683.00     3.342     62.64    0.0    6.1
  CC-R2                   10.39           2      0.00    683.00    683.00     2.044     38.69    0.0   10.0
  CC-S1                   96.88           3      0.00     40.28    200.00     0.828      4.94    0.0    0.0
  CC-S2                   93.72           4      0.00     69.38    200.00     1.181      7.29    0.0    0.0
  JK-R1                   14.67           8      0.00    275.28   1000.00     1.256     14.30    0.0    0.0
  JK-R2                   11.79           4      0.00    212.53   1000.00     0.722      7.65    0.0    0.0
  JK-S                    26.70           8      0.00     98.44    300.00     0.970      8.77    0.0    0.0
  XR-1                    97.91           2      0.00     95.00     95.00     2.679      9.63    0.0    0.0
  XR-2                    93.95           2      0.00     95.00     95.00     2.570      8.79    0.0    0.0
  XR-3                     0.00           1      0.00     95.00     95.00     0.000      0.00    0.0    0.0
  XR-4                     0.00           1      0.00     95.00     95.00     0.000      0.00    0.0    0.0
  

  Analysis begun on:  Sun Jun 25 21:03:11 2023
  Analysis ended on:  Sun Jun 25 21:03:23 2023
  Total elapsed time: 00:00:12