
  OWA STORM WATER MANAGEMENT MODEL - VERSION v5.1.14 (OWA 2022-07-31)
  --------------------------------------------------------------

  WARNING 04: minimum elevation drop used for Conduit WS02004404WS02004405
  WARNING 03: negative offset ignored for Link YS02001904YS02001907
  
  *********************************************************
  NOTE: The summary statistics displayed in this report are
  based on results found at every computational time step,  
  not just on results from each reporting time step.
  *********************************************************
  
  ****************
  Analysis Options
  ****************
  Flow Units ............... LPS
  Process Models:
    Rainfall/Runoff ........ YES
    RDII ................... NO
    Snowmelt ............... NO
    Groundwater ............ NO
    Flow Routing ........... YES
    Ponding Allowed ........ NO
    Water Quality .......... NO
  Infiltration Method ...... HORTON
  Flow Routing Method ...... DYNWAVE
  Surcharge Method ......... EXTRAN
  Starting Date ............ 08/28/2015 08:00:00
  Ending Date .............. 08/28/2015 16:00:00
  Antecedent Dry Days ...... 8.0
  Report Time Step ......... 00:01:00
  Wet Time Step ............ 00:01:00
  Dry Time Step ............ 00:01:00
  Routing Time Step ........ 30.00 sec
  Variable Time Step ....... YES
  Maximum Trials ........... 8
  Number of Threads ........ 1
  Head Tolerance ........... 0.001500 m
  
  
  **************************        Volume         Depth
  Runoff Quantity Continuity     hectare-m            mm
  **************************     ---------       -------
  Initial LID Storage ......         0.072         1.184
  Total Precipitation ......         2.950        48.704
  Evaporation Loss .........         0.000         0.000
  Infiltration Loss ........         0.198         3.263
  Surface Runoff ...........         2.208        36.451
  Final Storage ............         0.617        10.187
  Continuity Error (%) .....        -0.025
  
  
  **************************        Volume        Volume
  Flow Routing Continuity        hectare-m      10^6 ltr
  **************************     ---------     ---------
  Dry Weather Inflow .......         0.630         6.296
  Wet Weather Inflow .......         2.208        22.081
  Groundwater Inflow .......         0.000         0.000
  RDII Inflow ..............         0.000         0.000
  External Inflow ..........         0.105         1.045
  External Outflow .........         2.085        20.849
  Flooding Loss ............         0.848         8.477
  Evaporation Loss .........         0.000         0.000
  Exfiltration Loss ........         0.000         0.000
  Initial Stored Volume ....         0.303         3.031
  Final Stored Volume ......         0.320         3.197
  Continuity Error (%) .....        -0.216
  
  
  *************************
  Highest Continuity Errors
  *************************
  Node YS02001583 (-6.03%)
  Node YS02001884 (5.25%)
  Node WS02006256 (4.63%)
  Node HS02004842 (1.87%)
  Node YS02001774 (1.83%)
  
  
  ***************************
  Time-Step Critical Elements
  ***************************
  Link WS02006280WS02006229 (66.38%)
  Link WS02004404WS02004405 (6.96%)
  Link WS02006238WS02006235 (6.81%)
  Link YS02001791YS02001793 (5.64%)
  Link WS02006252WS02006251 (2.42%)
  
  
  ********************************
  Highest Flow Instability Indexes
  ********************************
  Link WS02006113WS02006111 (28)
  Link WS02006256WS02006235 (23)
  Link WS02004404WS02004405 (20)
  Link WS02006229WS02006228 (19)
  Link WS02006238WS02006235 (19)
  
  
  *************************
  Routing Time Step Summary
  *************************
  Minimum Time Step           :     0.00 sec
  Average Time Step           :     2.88 sec
  Maximum Time Step           :     6.46 sec
  Percent in Steady State     :    -0.00
  Average Iterations per Step :     3.64
  Percent Not Converging      :    16.85
  
  
  ***************************
  Subcatchment Runoff Summary
  ***************************
  
  ------------------------------------------------------------------------------------------------------------------------------
                            Total      Total      Total      Total     Imperv       Perv      Total       Total     Peak  Runoff
                           Precip      Runon       Evap      Infil     Runoff     Runoff     Runoff      Runoff   Runoff   Coeff
  Subcatchment                 mm         mm         mm         mm         mm         mm         mm    10^6 ltr      LPS
  ------------------------------------------------------------------------------------------------------------------------------
  sub0                      48.70       0.00       0.00       0.97      44.04       2.44      46.48        0.04    27.59   0.954
  sub1                      48.70       0.00       0.00       1.46      37.74       3.34      41.07        0.27   170.76   0.843
  sub10                     48.70       0.00       0.00       0.93      35.37       2.23      37.60        0.41   267.12   0.772
  sub11                     48.70       0.00       0.00       0.85      32.87       2.09      34.96        0.41   278.04   0.718
  sub12                     48.70       0.00       0.00       1.49      33.42       3.64      37.07        0.32   236.32   0.761
  sub14                     48.70       0.00       0.00       0.93      31.13       2.24      33.37        0.32   214.28   0.685
  sub15                     48.70       0.00       0.00       4.22      27.99       8.12      36.11        0.62   379.54   0.741
  sub16                     48.70       0.00       0.00       4.48      27.30       9.36      36.66        0.38   256.75   0.753
  sub17                     48.70       0.00       0.00       4.80      30.13       9.79      39.92        0.34   222.37   0.820
  sub2                      48.70       0.00       0.00       6.66      27.58      10.03      37.61        0.35   178.56   0.772
  sub22                     48.70       0.00       0.00       7.49      26.12      12.79      38.92        2.46  1397.90   0.799
  sub23                     48.70       0.00       0.00       5.63      26.90      10.63      37.53        1.79  1097.34   0.771
  sub3                      48.70       0.00       0.00       7.12      27.30       9.42      36.73        0.83   384.68   0.754
  sub4                      48.70       0.00       0.00       1.60      37.14       3.14      40.28        0.84   417.69   0.827
  sub5                      48.70       0.00       0.00       0.83      36.51       2.00      38.51        0.44   275.90   0.791
  sub60                     48.70       0.00       0.00       1.33      32.15       3.18      35.33        0.46   321.14   0.725
  sub61                     48.70       0.00       0.00       2.04      32.12       4.73      36.85        0.68   467.73   0.757
  sub62                     48.70       0.00       0.00       0.90      34.24       2.16      36.40        1.00   639.04   0.747
  sub63                     48.70       0.00       0.00       3.75      27.51       7.81      35.32        0.80   525.06   0.725
  sub64                     48.70       0.00       0.00       1.80      31.32       3.89      35.21        0.85   522.20   0.723
  sub65                     48.70       0.00       0.00       1.65      33.80       3.55      37.35        1.03   610.27   0.767
  sub66                     48.70       0.00       0.00       4.39      26.59       6.81      33.40        1.56   783.46   0.686
  sub67                     48.70       0.00       0.00       0.90      35.11       2.24      37.35        0.69   499.58   0.767
  sub68                     48.70       0.00       0.00       1.57      31.00       3.63      34.63        0.95   636.22   0.711
  sub69                     48.70       0.00       0.00       1.42      32.73       4.37      37.10        1.37   790.48   0.762
  sub7                      48.70       0.00       0.00       0.98      33.37       2.41      35.78        0.12    84.01   0.735
  sub70                     48.70       0.00       0.00       4.80      26.21       8.76      34.96        1.01   453.48   0.718
  sub71                     48.70       0.00       0.00       0.83      31.10       1.95      33.05        0.86   529.00   0.679
  sub72                     48.70       0.00       0.00       0.80      33.59       1.81      35.40        0.49   272.27   0.727
  sub8                      48.70       0.00       0.00       0.96      32.43       2.34      34.76        0.22   150.68   0.714
  sub9                      48.70       0.00       0.00       0.93      31.43       2.27      33.70        0.16   109.76   0.692
  

  ***********************
  LID Performance Summary
  ***********************

  --------------------------------------------------------------------------------------------------------------------
                                         Total      Evap     Infil   Surface    Drain    Initial     Final  Continuity
                                        Inflow      Loss      Loss   Outflow   Outflow   Storage   Storage       Error
  Subcatchment      LID Control             mm        mm        mm        mm        mm        mm        mm           %
  --------------------------------------------------------------------------------------------------------------------
  sub1              GreenRoof            48.70      0.00      0.00      0.00      0.00      7.05     55.78       -0.05
  sub10             GreenRoof            48.70      0.00      0.00      0.00      0.00      7.05     55.78       -0.05
  sub11             GreenRoof            48.70      0.00      0.00      0.00      0.00      7.05     55.78       -0.05
  sub12             GreenRoof            48.70      0.00      0.00      0.00      0.00      7.05     55.78       -0.05
  sub14             GreenRoof            48.70      0.00      0.00      0.00      0.00      7.05     55.78       -0.05
  sub15             GreenRoof            48.70      0.00      0.00      0.00      0.00      7.05     55.78       -0.05
  sub16             GreenRoof            48.70      0.00      0.00      0.00      0.00      7.05     55.78       -0.05
  sub17             GreenRoof            48.70      0.00      0.00      0.00      0.00      7.05     55.78       -0.05
  sub2              GreenRoof            48.70      0.00      0.00      0.00      0.00      7.05     55.78       -0.05
  sub22             GreenRoof            48.70      0.00      0.00      0.00      0.00      7.05     55.78       -0.05
  sub23             GreenRoof            48.70      0.00      0.00      0.00      0.00      7.05     55.78       -0.05
  sub3              GreenRoof            48.70      0.00      0.00      0.00      0.00      7.05     55.78       -0.05
  sub4              GreenRoof            48.70      0.00      0.00      0.00      0.00      7.05     55.78       -0.05
  sub5              GreenRoof            48.70      0.00      0.00      0.00      0.00      7.05     55.78       -0.05
  sub60             GreenRoof            48.70      0.00      0.00      0.00      0.00      7.05     55.78       -0.05
  sub61             GreenRoof            48.70      0.00      0.00      0.00      0.00      7.05     55.78       -0.05
  sub62             GreenRoof            48.70      0.00      0.00      0.00      0.00      7.05     55.78       -0.05
  sub63             GreenRoof            48.70      0.00      0.00      0.00      0.00      7.05     55.78       -0.05
  sub64             GreenRoof            48.70      0.00      0.00      0.00      0.00      7.05     55.78       -0.05
  sub65             GreenRoof            48.70      0.00      0.00      0.00      0.00      7.05     55.78       -0.05
  sub66             GreenRoof            48.70      0.00      0.00      0.00      0.00      7.05     55.78       -0.05
  sub67             GreenRoof            48.70      0.00      0.00      0.00      0.00      7.05     55.78       -0.05
  sub68             GreenRoof            48.70      0.00      0.00      0.00      0.00      7.05     55.78       -0.05
  sub69             GreenRoof            48.70      0.00      0.00      0.00      0.00      7.05     55.78       -0.05
  sub7              GreenRoof            48.70      0.00      0.00      0.00      0.00      7.05     55.78       -0.05
  sub70             GreenRoof            48.70      0.00      0.00      0.00      0.00      7.05     55.78       -0.05
  sub71             GreenRoof            48.70      0.00      0.00      0.00      0.00      7.05     55.78       -0.05
  sub72             GreenRoof            48.70      0.00      0.00      0.00      0.00      7.05     55.78       -0.05
  sub8              GreenRoof            48.70      0.00      0.00      0.00      0.00      7.05     55.78       -0.05
  sub9              GreenRoof            48.70      0.00      0.00      0.00      0.00      7.05     55.78       -0.05
  
  ******************
  Node Depth Summary
  ******************
  
  ---------------------------------------------------------------------------------
                                 Average  Maximum  Maximum  Time of Max    Reported
                                   Depth    Depth      HGL   Occurrence   Max Depth
  Node                 Type       Meters   Meters   Meters  days hr:min      Meters
  ---------------------------------------------------------------------------------
  HS02004478           JUNCTION     0.22     1.73    10.96     0  02:11        1.59
  HS02004479           JUNCTION     0.30     1.82    11.02     0  02:11        1.69
  HS02004480           JUNCTION     0.26     1.81    11.05     0  02:11        1.68
  HS02004770           JUNCTION     0.27     1.42    11.25     0  02:08        1.42
  HS02004777           JUNCTION     0.29     1.48    11.28     0  02:08        1.45
  HS02004785           JUNCTION     0.19     1.49    11.39     0  02:08        1.34
  HS02004788           JUNCTION     0.15     1.42    11.32     0  02:08        1.34
  HS02004792           JUNCTION     0.21     1.60    11.12     0  02:08        1.60
  HS02004799           JUNCTION     0.33     1.76    10.97     0  02:11        1.76
  HS02004802           JUNCTION     0.31     1.90    11.03     0  02:11        1.81
  HS02004807           JUNCTION     0.28     1.92    11.09     0  02:11        1.92
  HS02004817           JUNCTION     0.59     2.41    11.26     0  02:11        2.37
  HS02004824           JUNCTION     0.15     2.00    11.41     0  02:11        1.92
  HS02004830           JUNCTION     0.15     2.01    11.48     0  02:11        1.92
  HS02004837           JUNCTION     0.12     1.97    11.55     0  02:11        1.86
  HS02004842           JUNCTION     0.41     2.22    11.49     0  02:11        2.18
  HS02004848           JUNCTION     0.10     2.06    11.66     0  02:11        1.85
  HS02004852           JUNCTION     0.10     2.12    11.63     0  02:11        1.87
  HS02004856           JUNCTION     0.16     2.07    11.50     0  02:11        1.88
  HS02004862           JUNCTION     0.12     2.00    11.38     0  02:11        1.82
  HS02004870           JUNCTION     0.11     2.03    11.31     0  02:11        1.76
  HS02004876           JUNCTION     0.16     2.00    11.03     0  02:11        1.82
  HS02004881           JUNCTION     0.10     1.77    10.80     0  02:11        1.56
  HS02004901           JUNCTION     0.28     1.42    11.24     0  02:08        1.42
  WS02001211           JUNCTION     0.63     0.80     5.64     0  02:17        0.80
  WS02001212           JUNCTION     0.37     0.57     5.63     0  02:17        0.57
  WS02001213           JUNCTION     0.59     0.86     5.62     0  02:17        0.86
  WS02003059           JUNCTION     0.65     0.93     5.62     0  02:15        0.93
  WS02003060           JUNCTION     0.37     0.68     5.61     0  02:16        0.68
  WS02003066           JUNCTION     0.22     0.45     6.00     0  02:14        0.45
  WS02003067           JUNCTION     0.52     0.88     6.20     0  02:14        0.88
  WS02003069           JUNCTION     0.41     0.77     5.35     0  02:17        0.77
  WS02003072           JUNCTION     0.47     0.80     5.18     0  02:17        0.80
  WS02003073           JUNCTION     0.28     0.51     4.57     0  02:17        0.51
  WS02004138           JUNCTION     0.13     0.14     7.39     0  00:29        0.14
  WS02004139           JUNCTION     0.57     0.74     5.65     0  02:17        0.74
  WS02004401           JUNCTION     0.73     1.81     7.81     0  02:12        1.79
  WS02004402           JUNCTION     0.75     1.76     7.72     0  02:12        1.73
  WS02004403           JUNCTION     0.76     1.68     7.61     0  02:12        1.66
  WS02004404           JUNCTION     0.82     1.69     7.54     0  02:12        1.67
  WS02004405           JUNCTION     0.81     1.64     7.49     0  02:12        1.63
  WS02004406           JUNCTION     0.80     1.53     7.36     0  02:13        1.52
  WS02004407           JUNCTION     0.25     0.88     7.20     0  02:13        0.88
  WS02004409           JUNCTION     0.50     1.36     7.13     0  02:13        1.35
  WS02004410           JUNCTION     0.51     1.27     6.99     0  02:13        1.26
  WS02004411           JUNCTION     0.51     1.19     6.87     0  02:13        1.18
  WS02004412           JUNCTION     0.52     1.09     6.73     0  02:13        1.09
  WS02004413           JUNCTION     0.66     1.14     6.61     0  02:14        1.14
  WS02006109           JUNCTION     0.94     2.64     9.26     0  02:03        2.64
  WS02006110           JUNCTION     0.88     2.40     8.99     0  02:03        2.40
  WS02006111           JUNCTION     0.40     1.68     8.39     0  02:12        1.66
  WS02006112           JUNCTION     0.94     2.31     8.19     0  02:12        2.28
  WS02006113           JUNCTION     0.47     1.79     8.68     0  02:12        1.77
  WS02006115           JUNCTION     0.65     1.90     8.04     0  02:12        1.88
  WS02006116           JUNCTION     0.72     1.90     7.94     0  02:12        1.87
  WS02006228           JUNCTION     0.98     3.03     9.68     0  02:11        3.02
  WS02006229           JUNCTION     0.99     3.25     9.94     0  02:11        3.21
  WS02006230           JUNCTION     0.91     2.65     9.39     0  02:05        2.65
  WS02006231           JUNCTION     0.64     2.19     9.32     0  02:12        2.19
  WS02006232           JUNCTION     0.72     2.18     9.22     0  02:05        2.18
  WS02006234           JUNCTION     0.59     1.96     9.12     0  01:55        1.96
  WS02006235           JUNCTION     0.60     2.00     9.16     0  01:55        1.93
  WS02006238           JUNCTION     0.62     2.09     9.24     0  01:55        1.95
  WS02006239           JUNCTION     0.56     1.96     9.17     0  03:06        1.81
  WS02006240           JUNCTION     0.51     2.10     9.39     0  03:06        1.65
  WS02006242           JUNCTION     0.54     1.55     8.82     0  01:55        1.55
  WS02006243           JUNCTION     0.44     1.48     8.90     0  00:05        1.37
  WS02006245           JUNCTION     0.42     1.56     9.04     0  01:55        1.28
  WS02006247           JUNCTION     0.43     1.47     8.97     0  01:55        1.23
  WS02006248           JUNCTION     0.37     1.10     8.69     0  00:05        1.10
  WS02006249           JUNCTION     0.39     1.09     8.69     0  00:05        1.09
  WS02006251           JUNCTION     0.46     2.21     9.88     0  02:30        2.12
  WS02006252           JUNCTION     0.28     1.50     9.74     0  00:00        1.50
  WS02006253           JUNCTION     0.53     3.52    11.16     0  03:00        2.82
  WS02006256           JUNCTION     0.86     2.35     9.28     0  00:00        2.35
  WS02006280           JUNCTION     0.29     1.82    10.09     0  02:11        1.73
  WS02006284           JUNCTION     0.55     2.08    10.48     0  02:11        1.95
  WS02006287           JUNCTION     0.29     1.89    10.84     0  02:11        1.75
  WSF200               JUNCTION     0.21     0.51     5.75     0  02:14        0.51
  YS02001580           JUNCTION     0.06     1.05     9.59     0  02:08        0.77
  YS02001583           JUNCTION     0.09     1.14     9.64     0  02:08        0.82
  YS02001586           JUNCTION     0.17     1.13     9.30     0  02:08        1.13
  YS02001590           JUNCTION     0.26     1.40     9.26     0  02:08        1.37
  YS02001593           JUNCTION     0.19     1.33     9.19     0  02:08        1.29
  YS02001596           JUNCTION     0.26     1.68     9.10     0  02:08        1.66
  YS02001600           JUNCTION     0.34     1.87     9.00     0  02:08        1.86
  YS02001601           JUNCTION     0.53     2.06     8.90     0  02:03        2.06
  YS02001602           JUNCTION     0.44     1.87     8.77     0  02:03        1.87
  YS02001605           JUNCTION     0.41     1.78     8.68     0  02:22        1.77
  YS02001607           JUNCTION     0.40     1.65     8.50     0  02:12        1.65
  YS02001610           JUNCTION     0.44     1.68     8.48     0  02:08        1.68
  YS02001613           JUNCTION     0.40     1.66     8.50     0  02:11        1.65
  YS02001616           JUNCTION     0.33     1.60     8.51     0  02:12        1.60
  YS02001619           JUNCTION     0.31     1.61     8.54     0  02:12        1.61
  YS02001622           JUNCTION     0.29     1.58     8.48     0  02:12        1.58
  YS02001625           JUNCTION     0.55     1.78     8.38     0  02:11        1.78
  YS02001629           JUNCTION     0.41     1.85     8.40     0  02:13        1.85
  YS02001633           JUNCTION     0.49     1.99     8.45     0  02:14        1.95
  YS02001641           JUNCTION     0.46     1.95     8.38     0  02:14        1.88
  YS02001644           JUNCTION     0.46     1.92     8.35     0  02:14        1.85
  YS02001647           JUNCTION     0.23     1.70     8.31     0  02:14        1.58
  YS02001649           JUNCTION     0.26     1.84     8.23     0  02:14        1.69
  YS02001652           JUNCTION     0.15     1.75     8.35     0  02:14        1.50
  YS02001655           JUNCTION     0.10     1.76     8.61     0  02:13        1.26
  YS02001658           JUNCTION     0.07     1.85     9.00     0  02:14        0.98
  YS02001661           JUNCTION     0.13     0.74     8.15     0  02:14        0.68
  YS02001664           JUNCTION     0.05     0.28     8.20     0  02:13        0.27
  YS02001745           JUNCTION     0.05     0.45     7.96     0  02:14        0.33
  YS02001748           JUNCTION     0.06     0.88     7.96     0  02:14        0.86
  YS02001751           JUNCTION     0.07     1.23     8.11     0  02:13        1.01
  YS02001754           JUNCTION     0.10     1.39     7.99     0  02:14        1.29
  YS02001757           JUNCTION     0.25     1.75     8.01     0  02:14        1.66
  YS02001759           JUNCTION     0.19     1.73     8.09     0  02:14        1.64
  YS02001762           JUNCTION     0.19     1.72     8.12     0  02:14        1.65
  YS02001765           JUNCTION     0.17     1.69     8.14     0  02:14        1.64
  YS02001767           JUNCTION     0.17     1.75     8.24     0  02:12        1.64
  YS02001770           JUNCTION     0.19     1.86     8.36     0  02:12        1.70
  YS02001774           JUNCTION     0.25     1.95     8.37     0  02:12        1.78
  YS02001779           JUNCTION     0.09     1.68     8.37     0  02:12        1.52
  YS02001783           JUNCTION     0.22     1.34     7.48     0  02:12        1.21
  YS02001784           JUNCTION     0.24     1.18     7.25     0  02:12        1.10
  YS02001786           JUNCTION     0.21     0.92     6.95     0  02:12        0.86
  YS02001788           JUNCTION     0.15     0.62     6.60     0  02:12        0.62
  YS02001790           JUNCTION     0.18     0.72     6.36     0  02:16        0.71
  YS02001791           JUNCTION     0.11     0.44     5.91     0  02:12        0.43
  YS02001793           JUNCTION     0.06     0.30     5.13     0  02:14        0.29
  YS02001882           JUNCTION     0.28     1.83     8.55     0  02:12        1.83
  YS02001884           JUNCTION     0.37     1.93     8.55     0  02:12        1.93
  YS02001887           JUNCTION     0.44     2.00     8.54     0  02:12        2.00
  YS02001890           JUNCTION     0.47     1.81     8.32     0  02:12        1.81
  YS02001895           JUNCTION     0.25     1.75     8.50     0  02:12        1.75
  YS02001898           JUNCTION     0.26     1.77     8.51     0  02:12        1.77
  YS02001901           JUNCTION     0.37     1.87     8.48     0  02:12        1.87
  YS02001904           JUNCTION     0.35     1.80     8.43     0  02:12        1.80
  YS02001907           JUNCTION     0.66     1.96     8.25     0  02:12        1.96
  YS02001910           JUNCTION     0.46     1.96     8.47     0  02:12        1.95
  YS02001915           JUNCTION     0.28     1.91     8.63     0  02:12        1.91
  YS02001918           JUNCTION     0.13     1.81     8.88     0  02:12        1.81
  YS02001920           JUNCTION     0.21     2.14     9.15     0  02:12        1.78
  YS02001923           JUNCTION     0.10     2.03     9.29     0  02:12        1.47
  YS02001926           JUNCTION     0.14     1.90     9.35     0  02:12        1.28
  YS02001929           JUNCTION     0.07     1.78     9.47     0  02:12        1.08
  YS02006553           JUNCTION     0.67     2.06     8.34     0  02:12        2.06
  YS02006556           JUNCTION     0.64     2.09     8.40     0  02:12        2.09
  YS02006558           JUNCTION     0.68     2.09     8.36     0  02:12        2.09
  YS02006561           JUNCTION     0.13     1.02     7.68     0  02:12        0.87
  YS02163301           JUNCTION     0.43     1.91     8.43     0  02:14        1.88
  YS02163601           JUNCTION     0.52     2.02     8.42     0  02:14        1.96
  YS02164001           JUNCTION     0.45     1.94     8.40     0  02:14        1.88
  YSB1154              JUNCTION     0.43     1.98    11.04     0  02:11        1.91
  YSB1171              JUNCTION     0.58     1.95    10.85     0  02:11        1.95
  YSB1174              JUNCTION     0.39     1.84    10.94     0  02:11        1.80
  YSB6556              JUNCTION     0.33     1.80    10.97     0  02:11        1.73
  CC-1                 OUTFALL      0.00     0.00     0.00     0  00:00        0.00
  CC-2                 OUTFALL      0.00     0.00     0.00     0  00:00        0.00
  JK-1                 OUTFALL      0.00     0.00     0.00     0  00:00        0.00
  JK-2                 OUTFALL      0.00     0.00     0.00     0  00:00        0.00
  WSC                  OUTFALL      0.28     0.51     1.18     0  02:18        0.51
  CC-storage           STORAGE      0.52     0.80     6.30     0  00:00        0.76
  JK-storage           STORAGE      1.35     4.24     5.04     0  02:23        4.18
  XR-storage           STORAGE      7.87     9.26     7.26     0  08:00        9.26
  
  
  *******************
  Node Inflow Summary
  *******************
  
  -------------------------------------------------------------------------------------------------
                                  Maximum  Maximum                  Lateral       Total        Flow
                                  Lateral    Total  Time of Max      Inflow      Inflow     Balance
                                   Inflow   Inflow   Occurrence      Volume      Volume       Error
  Node                 Type           LPS      LPS  days hr:min    10^6 ltr    10^6 ltr     Percent
  -------------------------------------------------------------------------------------------------
  HS02004478           JUNCTION      0.00  2247.34     0  02:13           0        6.73      -0.007
  HS02004479           JUNCTION      0.00   427.24     0  02:11           0       0.679       0.124
  HS02004480           JUNCTION      0.00  2111.07     0  02:09           0        5.28       0.051
  HS02004770           JUNCTION   1097.34  1097.34     0  02:14        1.79           2       0.149
  HS02004777           JUNCTION      0.03   751.23     0  02:08    0.000864        1.59       0.327
  HS02004785           JUNCTION      0.15   769.51     0  02:08     0.00432        1.59       0.021
  HS02004788           JUNCTION    381.21   848.06     0  02:08       0.669        2.26      -0.022
  HS02004792           JUNCTION   1398.18  2119.26     0  02:14        2.47        4.72       0.008
  HS02004799           JUNCTION    214.28  1772.89     0  02:09       0.318        4.62       0.056
  HS02004802           JUNCTION      0.00   734.15     0  02:14           0        1.48       0.274
  HS02004807           JUNCTION    278.04   733.99     0  02:14       0.406        1.53       0.278
  HS02004817           JUNCTION      0.60   462.40     0  02:14      0.0173        1.17       1.445
  HS02004824           JUNCTION    417.74   645.40     0  02:09       0.842        1.37       0.034
  HS02004830           JUNCTION      0.15   653.15     0  02:09     0.00432       0.744       0.187
  HS02004837           JUNCTION    273.47   833.04     0  02:09       0.598        1.01       0.079
  HS02004842           JUNCTION      0.00   832.22     0  02:09           0       0.691       1.910
  HS02004848           JUNCTION    384.68  1088.76     0  02:11       0.827        1.36      -0.009
  HS02004852           JUNCTION      0.00  1049.34     0  02:11           0        1.21       0.039
  HS02004856           JUNCTION    109.76  1084.22     0  02:11       0.162        1.37       0.069
  HS02004862           JUNCTION    178.76  1215.53     0  02:11       0.356        1.73      -0.015
  HS02004870           JUNCTION    150.68  1306.92     0  02:10       0.222        1.95      -0.011
  HS02004876           JUNCTION    170.76  1298.72     0  02:11       0.273        2.22       0.032
  HS02004881           JUNCTION     84.01  1375.00     0  02:11       0.121        2.36       0.017
  HS02004901           JUNCTION    256.75   484.59     0  02:15       0.384       0.551       0.333
  WS02001211           JUNCTION      7.35   204.81     0  02:45       0.212        5.44       0.611
  WS02001212           JUNCTION      0.00   211.97     0  02:45           0        5.41       0.291
  WS02001213           JUNCTION      0.00   216.94     0  02:44           0        5.39       0.332
  WS02003059           JUNCTION      0.00   222.59     0  02:44           0        5.38       0.595
  WS02003060           JUNCTION     16.53  1477.57     0  02:16       0.476        12.3       0.119
  WS02003066           JUNCTION      0.00  1276.44     0  02:14           0        6.48       0.022
  WS02003067           JUNCTION      0.00  1276.02     0  02:14           0        6.48       0.067
  WS02003069           JUNCTION      0.32  1477.71     0  02:16     0.00922        12.3       0.125
  WS02003072           JUNCTION      0.00  1477.60     0  02:17           0        12.3       0.170
  WS02003073           JUNCTION      1.82  1479.45     0  02:17      0.0524        12.3       0.176
  WS02004138           JUNCTION      0.00   380.00     0  00:00           0        5.25       0.054
  WS02004139           JUNCTION      0.32   191.08     0  00:29     0.00924        5.26       0.507
  WS02004401           JUNCTION      0.00  1275.70     0  02:13           0        6.59       0.159
  WS02004402           JUNCTION      0.00  1276.46     0  02:13           0        6.58       0.162
  WS02004403           JUNCTION      0.00  1276.95     0  02:13           0        6.57       0.158
  WS02004404           JUNCTION      0.16  1277.06     0  02:13     0.00467        6.56       0.131
  WS02004405           JUNCTION      0.04  1278.54     0  02:12      0.0011        6.56       0.196
  WS02004406           JUNCTION      0.00  1278.76     0  02:12           0        6.54       0.326
  WS02004407           JUNCTION      0.00  1278.63     0  02:12           0        6.52       0.023
  WS02004409           JUNCTION      0.00  1275.69     0  02:14           0        6.52       0.048
  WS02004410           JUNCTION      0.00  1276.01     0  02:14           0        6.52       0.074
  WS02004411           JUNCTION      0.00  1275.89     0  02:14           0        6.51       0.093
  WS02004412           JUNCTION      0.00  1275.91     0  02:14           0        6.51       0.121
  WS02004413           JUNCTION      0.00  1275.76     0  02:14           0         6.5       0.215
  WS02006109           JUNCTION      1.23  1260.71     0  02:13      0.0354        6.41       0.176
  WS02006110           JUNCTION      0.00  1114.96     0  02:23           0        6.29       0.114
  WS02006111           JUNCTION      0.00  1115.30     0  02:23           0        6.28       0.016
  WS02006112           JUNCTION    222.37  1276.74     0  02:13       0.343        6.62       0.290
  WS02006113           JUNCTION      0.00  1115.11     0  02:23           0        6.28       0.028
  WS02006115           JUNCTION      0.00  1276.24     0  02:13           0         6.6       0.100
  WS02006116           JUNCTION      0.00  1276.39     0  02:13           0         6.6       0.081
  WS02006228           JUNCTION      0.00  1260.11     0  02:13           0        6.38       0.086
  WS02006229           JUNCTION      0.00  2258.39     0  02:13           0        7.94       0.091
  WS02006230           JUNCTION     10.28   998.46     0  02:13       0.296        2.82       0.333
  WS02006231           JUNCTION      0.00   453.26     0  02:10           0        1.97      -0.194
  WS02006232           JUNCTION      0.00   453.45     0  02:14           0        1.97       0.252
  WS02006234           JUNCTION      0.00   453.12     0  02:10           0        1.97      -0.306
  WS02006235           JUNCTION      0.00   448.83     0  00:06           0        1.93       0.353
  WS02006238           JUNCTION      0.00   452.41     0  00:06           0        1.86      -0.259
  WS02006239           JUNCTION      0.00   478.76     0  00:06           0        1.83      -0.302
  WS02006240           JUNCTION      0.00   553.41     0  00:05           0        1.82      -0.051
  WS02006242           JUNCTION      0.00   598.54     0  00:05           0        1.81      -0.146
  WS02006243           JUNCTION      0.00   665.20     0  00:05           0        1.55      -0.466
  WS02006245           JUNCTION      0.00   672.02     0  00:05           0        1.57       0.838
  WS02006247           JUNCTION      0.00   671.76     0  03:26           0        1.56      -0.265
  WS02006248           JUNCTION      0.00   769.68     0  03:26           0        1.75      -0.479
  WS02006249           JUNCTION      0.00  1338.46     0  02:11           0         3.6       0.400
  WS02006251           JUNCTION      0.08  1406.45     0  02:11     0.00222        3.73       0.109
  WS02006252           JUNCTION      0.00  2000.00     0  00:05           0        2.31      -1.470
  WS02006253           JUNCTION     27.59  1402.61     0  02:11      0.0377        2.51      -0.288
  WS02006256           JUNCTION      0.00  1500.00     0  00:20           0        0.78       4.852
  WS02006280           JUNCTION      0.00  2247.12     0  02:13           0        6.71       0.002
  WS02006284           JUNCTION      0.10  2246.58     0  02:14     0.00275        6.71       0.004
  WS02006287           JUNCTION      0.00  2247.50     0  02:13           0        6.71       0.013
  WSF200               JUNCTION      0.00  1276.41     0  02:14           0        6.48       0.012
  YS02001580           JUNCTION      0.00   112.82     0  02:08           0     0.00391      -6.394
  YS02001583           JUNCTION      0.00   169.34     0  02:08           0      0.0148      -5.687
  YS02001586           JUNCTION    453.48   453.48     0  02:15        1.01        1.02       0.127
  YS02001590           JUNCTION      0.00   317.86     0  02:21           0       0.942      -0.042
  YS02001593           JUNCTION      0.00   317.98     0  02:21           0       0.942       0.018
  YS02001596           JUNCTION      0.00   317.92     0  02:24           0       0.942       0.003
  YS02001600           JUNCTION      0.00   318.02     0  02:21           0       0.942       0.023
  YS02001601           JUNCTION    790.48  1107.95     0  02:14        1.37        2.32       0.039
  YS02001602           JUNCTION      0.00   516.39     0  02:08           0        1.77       0.020
  YS02001605           JUNCTION      0.00   515.77     0  02:08           0        1.73       0.023
  YS02001607           JUNCTION      0.00   515.36     0  02:08           0        1.73       0.108
  YS02001610           JUNCTION      0.00   514.48     0  02:08           0        1.72       0.127
  YS02001613           JUNCTION      0.00   515.79     0  02:07           0        1.59       0.098
  YS02001616           JUNCTION      0.00   517.09     0  02:07           0        1.59       0.025
  YS02001619           JUNCTION    783.46   938.97     0  02:11        1.56        3.14      -0.004
  YS02001622           JUNCTION      0.00   938.28     0  02:11           0        3.14       0.002
  YS02001625           JUNCTION      0.00   938.23     0  02:11           0        3.14       0.280
  YS02001629           JUNCTION      0.00   937.48     0  02:11           0        2.96       0.030
  YS02001633           JUNCTION    610.47  1425.13     0  02:11        1.03        3.99       0.086
  YS02001641           JUNCTION      0.00  1422.38     0  02:11           0        3.99       0.069
  YS02001644           JUNCTION    522.23  1854.23     0  02:11       0.847        4.83       0.068
  YS02001647           JUNCTION      0.00  1856.52     0  02:11           0        4.82       0.004
  YS02001649           JUNCTION      0.00  2153.77     0  02:11           0        5.63       0.004
  YS02001652           JUNCTION      0.00   593.24     0  02:15           0       0.806      -0.113
  YS02001655           JUNCTION      0.15   593.49     0  02:15     0.00443       0.807       0.002
  YS02001658           JUNCTION      0.00   760.07     0  02:14           0       0.802      -0.066
  YS02001661           JUNCTION      0.00   533.57     0  02:13           0       0.802       0.039
  YS02001664           JUNCTION    525.06   525.06     0  02:13       0.802       0.802      -0.006
  YS02001745           JUNCTION    321.14   321.14     0  02:13       0.464       0.464       0.197
  YS02001748           JUNCTION      0.04   442.88     0  02:14      0.0013       0.465      -0.194
  YS02001751           JUNCTION      0.01   464.35     0  02:15    0.000317       0.468       0.057
  YS02001754           JUNCTION      0.26   380.93     0  02:14     0.00749       0.477      -0.218
  YS02001757           JUNCTION      0.00  3283.21     0  02:15           0         7.8       0.022
  YS02001759           JUNCTION    467.77  1188.39     0  02:12       0.677        1.69      -0.010
  YS02001762           JUNCTION      0.00   714.34     0  02:12           0        1.02       0.013
  YS02001765           JUNCTION      0.00   704.76     0  02:13           0        1.02      -0.005
  YS02001767           JUNCTION      0.54   695.60     0  02:12      0.0154        1.02       0.012
  YS02001770           JUNCTION    639.19   691.22     0  02:13           1        1.04       0.010
  YS02001774           JUNCTION      0.00   289.63     0  02:12           0      0.0593       1.860
  YS02001779           JUNCTION      0.01   292.68     0  02:12    0.000144      0.0176      -4.212
  YS02001783           JUNCTION      0.00  1150.78     0  02:13           0        2.82       0.008
  YS02001784           JUNCTION      1.06  1152.11     0  02:13      0.0305        2.85       0.017
  YS02001786           JUNCTION      0.06  1151.88     0  02:13     0.00162        2.86       0.022
  YS02001788           JUNCTION      0.07  1152.71     0  02:13     0.00204        2.86       0.010
  YS02001790           JUNCTION      0.15  1162.86     0  02:14     0.00446        2.86       0.024
  YS02001791           JUNCTION      0.00  1276.96     0  02:16           0        2.86      -0.019
  YS02001793           JUNCTION      0.00  1239.78     0  02:15           0        2.86       0.008
  YS02001882           JUNCTION      0.00    62.33     0  02:10           0      0.0121       4.467
  YS02001884           JUNCTION      0.00    81.67     0  02:10           0      0.0477       5.545
  YS02001887           JUNCTION    500.03   500.06     0  02:13       0.708       0.741       0.601
  YS02001890           JUNCTION      0.00   500.49     0  02:13           0         0.7       0.718
  YS02001895           JUNCTION      0.00   490.74     0  02:13           0       0.693       0.182
  YS02001898           JUNCTION      0.00   491.60     0  02:13           0       0.692       0.042
  YS02001901           JUNCTION      0.00   492.17     0  02:13           0       0.694       0.453
  YS02001904           JUNCTION      0.00   491.80     0  02:13           0       0.698       0.393
  YS02001907           JUNCTION      0.00  1469.78     0  02:13           0        2.12       0.849
  YS02001910           JUNCTION      0.00   977.34     0  02:13           0        1.43       0.499
  YS02001915           JUNCTION    529.02   977.15     0  02:13       0.865        1.47       0.108
  YS02001918           JUNCTION      0.00   450.71     0  02:13           0       0.637       0.009
  YS02001920           JUNCTION      2.87   449.66     0  02:13      0.0827        0.62       0.159
  YS02001923           JUNCTION      0.04   402.66     0  02:13     0.00109       0.522      -0.122
  YS02001926           JUNCTION      0.05   640.54     0  02:12      0.0015       0.502      -0.153
  YS02001929           JUNCTION    272.27   475.13     0  02:12       0.487        0.49      -0.005
  YS02006553           JUNCTION      0.00   792.44     0  02:22           0        1.89       0.626
  YS02006556           JUNCTION      0.00   792.52     0  02:22           0         1.9       0.420
  YS02006558           JUNCTION    637.10  1160.55     0  02:12       0.978        2.85       0.123
  YS02006561           JUNCTION      0.00  1163.53     0  02:12           0        2.82      -0.001
  YS02163301           JUNCTION      0.00   937.36     0  02:10           0        2.96       0.052
  YS02163601           JUNCTION      0.11  1423.86     0  02:11     0.00317        3.99       0.122
  YS02164001           JUNCTION      0.00  1422.06     0  02:11           0        3.99       0.060
  YSB1154              JUNCTION    275.90   275.90     0  02:14       0.436       0.437       0.332
  YSB1171              JUNCTION      0.00   511.61     0  02:13           0       0.768       0.818
  YSB1174              JUNCTION    236.32   236.32     0  02:13       0.324       0.324       0.405
  YSB6556              JUNCTION      0.00   276.07     0  02:14           0       0.438       0.283
  CC-1                 OUTFALL       0.00  3415.00     0  00:05           0        2.87       0.000
  CC-2                 OUTFALL       0.00  3415.00     0  00:05           0        3.49       0.000
  JK-1                 OUTFALL       0.00  5000.00     0  01:45           0        1.37       0.000
  JK-2                 OUTFALL       0.00  5000.00     0  01:45           0       0.841       0.000
  WSC                  OUTFALL       0.00  1479.85     0  02:18           0        12.3       0.000
  CC-storage           STORAGE       0.00  3285.05     0  02:15           0          10      -0.201
  JK-storage           STORAGE       0.00  1367.75     0  02:15           0        3.01      -0.668
  XR-storage           STORAGE     200.00   200.00     0  00:00        5.76        6.36       0.001
  
  
  **********************
  Node Surcharge Summary
  **********************
  
  Surcharging occurs when water rises above the top of the highest conduit.
  ---------------------------------------------------------------------
                                               Max. Height   Min. Depth
                                   Hours       Above Crown    Below Rim
  Node                 Type      Surcharged         Meters       Meters
  ---------------------------------------------------------------------
  HS02004478           JUNCTION        0.29          0.814        0.126
  HS02004479           JUNCTION        0.41          1.016        0.034
  HS02004480           JUNCTION        0.45          1.099        0.001
  HS02004770           JUNCTION        0.37          0.720        0.000
  HS02004777           JUNCTION        0.37          0.780        0.000
  HS02004785           JUNCTION        0.33          0.790        0.000
  HS02004788           JUNCTION        0.32          0.720        0.000
  HS02004792           JUNCTION        0.42          0.900        0.000
  HS02004799           JUNCTION        0.53          1.060        0.000
  HS02004802           JUNCTION        0.46          1.190        0.020
  HS02004807           JUNCTION        0.43          1.220        0.000
  HS02004817           JUNCTION        0.94          1.714        0.026
  HS02004824           JUNCTION        0.31          1.302        0.008
  HS02004830           JUNCTION        0.28          1.310        0.020
  HS02004837           JUNCTION        0.25          1.274        0.066
  HS02004842           JUNCTION        0.37          1.520        0.000
  HS02004848           JUNCTION        0.20          1.359        0.011
  HS02004852           JUNCTION        0.23          1.420        0.000
  HS02004856           JUNCTION        0.20          1.300        0.000
  HS02004862           JUNCTION        0.24          1.300        0.000
  HS02004870           JUNCTION        0.25          1.327        0.073
  HS02004876           JUNCTION        0.30          1.304        0.256
  HS02004881           JUNCTION        0.28          1.071        0.379
  HS02004901           JUNCTION        0.38          0.720        0.000
  WS02004401           JUNCTION        1.18          0.811        0.849
  WS02004402           JUNCTION        1.19          0.756        0.984
  WS02004403           JUNCTION        1.19          0.680        1.350
  WS02004404           JUNCTION        1.29          0.690        2.090
  WS02004405           JUNCTION        1.28          0.640        2.160
  WS02004406           JUNCTION        1.26          0.529        1.921
  WS02004409           JUNCTION        0.72          0.359        2.001
  WS02004410           JUNCTION        0.71          0.275        2.265
  WS02004411           JUNCTION        0.64          0.185        2.345
  WS02004412           JUNCTION        0.55          0.092        2.218
  WS02004413           JUNCTION        0.99          0.137        2.063
  WS02006109           JUNCTION        1.53          1.820        0.000
  WS02006110           JUNCTION        1.36          1.490        0.360
  WS02006111           JUNCTION        0.93          0.872        0.998
  WS02006112           JUNCTION        1.42          1.305        0.375
  WS02006113           JUNCTION        0.96          0.986        0.944
  WS02006115           JUNCTION        1.08          0.893        1.357
  WS02006116           JUNCTION        1.10          0.838        1.452
  WS02006228           JUNCTION        1.53          2.200        0.000
  WS02006229           JUNCTION        0.67          1.070        0.000
  WS02006230           JUNCTION        1.25          1.570        0.000
  WS02006231           JUNCTION        1.26          1.484        0.046
  WS02006232           JUNCTION        1.35          1.480        0.000
  WS02006234           JUNCTION        1.26          1.240        0.000
  WS02006235           JUNCTION        1.28          1.290        0.000
  WS02006238           JUNCTION        1.29          1.372        0.058
  WS02006239           JUNCTION        1.23          1.223        0.067
  WS02006240           JUNCTION        1.19          1.390        0.000
  WS02006242           JUNCTION        1.21          0.820        0.000
  WS02006243           JUNCTION        1.12          0.770        0.000
  WS02006245           JUNCTION        1.10          0.850        0.000
  WS02006247           JUNCTION        1.10          0.760        0.000
  WS02006248           JUNCTION        1.06          0.380        0.000
  WS02006249           JUNCTION        1.07          0.390        0.000
  WS02006251           JUNCTION        0.88          1.180        0.000
  WS02006252           JUNCTION        1.16          1.100        0.000
  WS02006253           JUNCTION        0.94          2.480        0.000
  WS02006256           JUNCTION        5.81          2.050        0.000
  WS02006280           JUNCTION        0.55          0.769        0.011
  WS02006284           JUNCTION        0.48          0.800        0.000
  WS02006287           JUNCTION        0.39          0.890        0.000
  YS02001580           JUNCTION        0.34          0.450        0.000
  YS02001583           JUNCTION        0.34          0.500        0.000
  YS02001586           JUNCTION        0.43          0.510        0.000
  YS02001590           JUNCTION        0.50          0.750        0.000
  YS02001593           JUNCTION        0.49          0.712        0.128
  YS02001596           JUNCTION        0.59          0.952        0.118
  YS02001600           JUNCTION        0.72          1.190        0.000
  YS02001601           JUNCTION        1.07          1.440        0.000
  YS02001602           JUNCTION        0.94          1.270        0.000
  YS02001605           JUNCTION        0.89          1.178        0.002
  YS02001607           JUNCTION        0.44          0.649        0.031
  YS02001610           JUNCTION        0.46          0.680        0.000
  YS02001613           JUNCTION        0.43          0.657        0.043
  YS02001616           JUNCTION        0.39          0.600        0.010
  YS02001619           JUNCTION        0.38          0.610        0.000
  YS02001622           JUNCTION        0.37          0.577        0.043
  YS02001625           JUNCTION        0.54          0.780        0.000
  YS02001629           JUNCTION        0.30          0.470        0.000
  YS02001633           JUNCTION        0.55          0.974        0.086
  YS02001641           JUNCTION        0.45          0.946        0.154
  YS02001644           JUNCTION        0.39          0.920        0.000
  YS02001647           JUNCTION        0.19          0.695        0.205
  YS02001649           JUNCTION        0.22          0.843        0.207
  YS02001652           JUNCTION        0.13          0.722        0.408
  YS02001655           JUNCTION        0.07          0.765        0.435
  YS02001658           JUNCTION        0.01          0.855        0.445
  YS02001751           JUNCTION        0.01          0.230        0.970
  YS02001754           JUNCTION        0.07          0.336        0.814
  YS02001757           JUNCTION        0.21          0.745        0.465
  YS02001759           JUNCTION        0.17          0.725        0.485
  YS02001762           JUNCTION        0.16          0.722        0.428
  YS02001765           JUNCTION        0.15          0.692        0.408
  YS02001767           JUNCTION        0.13          0.753        0.277
  YS02001770           JUNCTION        0.13          0.834        0.086
  YS02001774           JUNCTION        0.16          0.948        0.102
  YS02001779           JUNCTION        0.08          0.680        0.000
  YS02001783           JUNCTION        0.31          0.539        1.061
  YS02001784           JUNCTION        0.29          0.383        1.107
  YS02001786           JUNCTION        0.20          0.118        1.312
  YS02001882           JUNCTION        0.26          0.830        0.000
  YS02001884           JUNCTION        0.27          0.870        0.000
  YS02001887           JUNCTION        0.30          0.950        0.000
  YS02001890           JUNCTION        0.31          0.760        0.000
  YS02001895           JUNCTION        0.25          0.750        0.000
  YS02001898           JUNCTION        0.25          0.740        0.000
  YS02001901           JUNCTION        0.29          0.870        0.000
  YS02001904           JUNCTION        0.28          0.805        0.045
  YS02001907           JUNCTION        0.49          0.950        0.000
  YS02001910           JUNCTION        0.33          0.964        0.136
  YS02001915           JUNCTION        0.26          0.909        0.091
  YS02001918           JUNCTION        0.19          0.810        0.000
  YS02001920           JUNCTION        0.20          1.140        0.000
  YS02001923           JUNCTION        0.01          0.820        0.000
  YS02001926           JUNCTION        0.01          0.900        0.000
  YS02001929           JUNCTION        0.01          0.780        0.000
  YS02006553           JUNCTION        0.50          1.060        0.130
  YS02006556           JUNCTION        0.41          1.048        0.302
  YS02006558           JUNCTION        0.40          0.993        0.407
  YS02006561           JUNCTION        0.16          0.216        0.934
  YS02163301           JUNCTION        0.53          0.912        0.118
  YS02163601           JUNCTION        0.57          1.023        0.057
  YS02164001           JUNCTION        0.46          0.944        0.156
  YSB1154              JUNCTION        0.63          1.283        0.117
  YSB1171              JUNCTION        0.64          1.100        0.000
  YSB1174              JUNCTION        0.57          1.136        0.114
  YSB6556              JUNCTION        0.51          1.100        0.000
  
  
  *********************
  Node Flooding Summary
  *********************
  
  Flooding refers to all water that overflows a node, whether it ponds or not.
  --------------------------------------------------------------------------
                                                             Total   Maximum
                                 Maximum   Time of Max       Flood    Ponded
                        Hours       Rate    Occurrence      Volume     Depth
  Node                 Flooded       LPS   days hr:min    10^6 ltr    Meters
  --------------------------------------------------------------------------
  HS02004770              0.22    545.22      0  02:13       0.245     0.000
  HS02004777              0.01     60.35      0  02:08       0.000     0.000
  HS02004785              0.01    110.57      0  02:08       0.000     0.000
  HS02004788              0.01    211.47      0  02:08       0.001     0.000
  HS02004792              0.21    976.26      0  02:14       0.419     0.000
  HS02004799              0.04     74.56      0  02:11       0.003     0.000
  HS02004807              0.01     13.99      0  02:11       0.000     0.000
  HS02004842              0.01    140.46      0  02:11       0.001     0.000
  HS02004852              0.01    133.82      0  02:11       0.000     0.000
  HS02004856              0.01     57.81      0  02:11       0.000     0.000
  HS02004862              0.01    314.57      0  02:11       0.001     0.000
  HS02004901              0.27    484.54      0  02:14       0.338     0.000
  WS02006109              0.24    208.79      0  02:13       0.108     0.000
  WS02006228              0.01      8.74      0  02:11       0.000     0.000
  WS02006229              0.01     20.77      0  02:11       0.000     0.000
  WS02006230              0.49    545.35      0  02:13       0.569     0.000
  WS02006232              0.12      0.69      0  02:07       0.000     0.000
  WS02006234              0.52    128.08      0  02:19       0.133     0.000
  WS02006235              0.01     22.66      0  01:55       0.000     0.000
  WS02006240              0.01     31.13      0  03:06       0.000     0.000
  WS02006242              0.63    137.17      0  02:29       0.253     0.000
  WS02006243              0.01    141.03      0  00:05       0.001     0.000
  WS02006245              0.01    254.59      0  01:55       0.001     0.000
  WS02006247              0.01    270.99      0  01:55       0.001     0.000
  WS02006248              0.86    341.26      0  02:06       0.868     0.000
  WS02006249              0.99   1276.94      0  02:11       2.512     0.000
  WS02006251              0.01    123.72      0  02:30       0.000     0.000
  WS02006252              0.44   1927.42      0  02:35       1.117     0.000
  WS02006253              0.01    508.11      0  03:00       0.000     0.000
  WS02006256              0.26   1495.75      0  02:05       0.618     0.000
  WS02006284              0.01      5.78      0  02:11       0.000     0.000
  WS02006287              0.01     12.03      0  02:11       0.000     0.000
  YS02001580              0.01     81.91      0  02:08       0.000     0.000
  YS02001583              0.01     34.37      0  02:08       0.000     0.000
  YS02001586              0.25    135.82      0  02:15       0.068     0.000
  YS02001590              0.01     10.42      0  02:08       0.000     0.000
  YS02001600              0.01      3.18      0  02:08       0.000     0.000
  YS02001601              0.37    710.00      0  02:14       0.543     0.000
  YS02001602              0.23     62.04      0  02:16       0.045     0.000
  YS02001610              0.20    280.95      0  02:15       0.134     0.000
  YS02001619              0.01      1.53      0  02:12       0.000     0.000
  YS02001625              0.15    613.30      0  02:15       0.178     0.000
  YS02001629              0.01     27.28      0  02:14       0.001     0.000
  YS02001644              0.01     18.55      0  02:14       0.000     0.000
  YS02001779              0.01    202.28      0  02:12       0.001     0.000
  YS02001882              0.01      7.52      0  02:12       0.000     0.000
  YS02001884              0.01      8.44      0  02:12       0.000     0.000
  YS02001887              0.01      5.18      0  02:12       0.000     0.000
  YS02001890              0.03     90.13      0  02:12       0.002     0.000
  YS02001895              0.01      4.71      0  02:12       0.000     0.000
  YS02001898              0.01     12.22      0  02:12       0.000     0.000
  YS02001901              0.01      5.99      0  02:12       0.000     0.000
  YS02001907              0.14    954.25      0  02:13       0.223     0.000
  YS02001918              0.01    198.82      0  02:12       0.002     0.000
  YS02001920              0.01     36.96      0  02:12       0.000     0.000
  YS02001923              0.01    132.46      0  02:12       0.000     0.000
  YS02001926              0.01    161.44      0  02:12       0.001     0.000
  YS02001929              0.01     80.65      0  02:12       0.000     0.000
  YSB1171                 0.12    344.77      0  02:14       0.090     0.000
  YSB6556                 0.01      7.84      0  02:11       0.000     0.000
  
  
  **********************
  Storage Volume Summary
  **********************
  
  --------------------------------------------------------------------------------------------------
                         Average     Avg  Evap Exfil       Maximum     Max    Time of Max    Maximum
                          Volume    Pcnt  Pcnt  Pcnt        Volume    Pcnt     Occurrence    Outflow
  Storage Unit           1000 m3    Full  Loss  Loss       1000 m3    Full    days hr:min        LPS
  --------------------------------------------------------------------------------------------------
  CC-storage               1.447      23     0     0         2.229      35       0  00:00    8830.00
  JK-storage               0.068      23     0     0         0.213      73       0  02:23   11500.00
  XR-storage               0.945      66     0     0         1.111      77       0  08:00     380.00
  
  
  ***********************
  Outfall Loading Summary
  ***********************
  
  -----------------------------------------------------------
                         Flow       Avg       Max       Total
                         Freq      Flow      Flow      Volume
  Outfall Node           Pcnt       LPS       LPS    10^6 ltr
  -----------------------------------------------------------
  CC-1                   5.68   2982.11   3415.00       2.870
  CC-2                   6.80   3053.41   3415.00       3.486
  JK-1                   3.20   2362.50   5000.00       1.367
  JK-2                   1.08   4222.22   5000.00       0.841
  WSC                   99.94    583.28   1479.85      12.285
  -----------------------------------------------------------
  System                23.34  13203.52   1479.85      20.849
  
  
  ********************
  Link Flow Summary
  ********************
  
  -----------------------------------------------------------------------------
                                 Maximum  Time of Max   Maximum    Max/    Max/
                                  |Flow|   Occurrence   |Veloc|    Full    Full
  Link                 Type          LPS  days hr:min     m/sec    Flow   Depth
  -----------------------------------------------------------------------------
  1                    CONDUIT   1479.85     0  02:18      3.68    0.52    0.51
  HS02004478WS02006287 CONDUIT   2247.50     0  02:13      2.62    0.63    1.00
  HS02004479HS02004480 CONDUIT    428.65     0  02:11      0.61    0.41    1.00
  HS02004480HS02004478 CONDUIT   2110.80     0  02:09      3.02    8.89    1.00
  HS02004770HS02004777 CONDUIT    751.20     0  02:08      1.07    1.37    1.00
  HS02004777HS02004785 CONDUIT    769.36     0  02:08      1.15    0.95    1.00
  HS02004785HS02004788 CONDUIT    635.85     0  02:08      1.36    4.79    1.00
  HS02004788HS02004792 CONDUIT    817.19     0  02:24      1.42    0.54    1.00
  HS02004792HS02004799 CONDUIT   1630.14     0  02:09      2.33    1.00    1.00
  HS02004799HS02004480 CONDUIT   1772.36     0  02:09      2.53    2.24    1.00
  HS02004802HS02004478 CONDUIT    734.76     0  02:14      1.05    0.65    1.00
  HS02004807HS02004802 CONDUIT    734.15     0  02:14      1.05    1.40    1.00
  HS02004817HS02004807 CONDUIT    462.79     0  02:14      0.66    0.27    1.00
  HS02004817HS02004824 CONDUIT    461.80     0  02:14      0.66    0.21    1.00
  HS02004824HS02004830 CONDUIT    653.00     0  02:09      0.96    0.85    1.00
  HS02004830HS02004837 CONDUIT    655.10     0  02:09      1.02    0.65    1.00
  HS02004837HS02004842 CONDUIT    832.22     0  02:09      1.19    0.50    1.00
  HS02004842HS02004848 CONDUIT    830.99     0  02:09      1.31    0.48    1.00
  HS02004848HS02004852 CONDUIT   1049.34     0  02:11      1.63    1.18    1.00
  HS02004852HS02004856 CONDUIT    994.95     0  02:11      1.49    1.14    1.00
  HS02004856HS02004862 CONDUIT   1080.16     0  02:11      1.71    1.08    1.00
  HS02004862HS02004870 CONDUIT   1187.07     0  02:10      1.93    1.28    1.00
  HS02004870HS02004876 CONDUIT   1153.88     0  02:11      1.84    0.77    1.00
  HS02004876HS02004881 CONDUIT   1301.29     0  02:11      2.58   13.84    1.00
  HS02004881HS02006253 CONDUIT   1377.97     0  02:11      2.60    0.27    1.00
  HS02004901HS02004770 CONDUIT    265.35     0  02:21      0.38    1.00    1.00
  WS02001211WS02001212 CONDUIT    211.97     0  02:45      0.54    0.16    0.68
  WS02001212WS02001213 CONDUIT    216.94     0  02:44      1.04    0.33    0.55
  WS02001213WS02003059 CONDUIT    222.59     0  02:44      0.47    0.37    0.89
  WS02003059WS02003060 CONDUIT    229.12     0  02:44      0.66    0.15    0.80
  WS02003060WS02003069 CONDUIT   1477.39     0  02:16      2.08    0.58    0.60
  WS02003066WSF200     CONDUIT   1276.41     0  02:14      3.25    0.22    0.38
  WS02003067WS02003066 CONDUIT   1276.44     0  02:14      1.98    0.41    0.56
  WS02003069WS02003072 CONDUIT   1477.60     0  02:17      1.88    0.71    0.66
  WS02003072WS02003073 CONDUIT   1477.63     0  02:17      2.04    3.19    0.61
  WS02004138WS02004139 CONDUIT    190.76     0  00:29      2.14    0.04    0.41
  WS02004139WS02001211 CONDUIT    197.46     0  02:45      0.54    0.25    0.60
  WS02004401WS02004402 CONDUIT   1276.46     0  02:13      1.63    1.53    1.00
  WS02004402WS02004403 CONDUIT   1276.95     0  02:13      1.63    1.83    1.00
  WS02004403WS02004404 CONDUIT   1276.89     0  02:13      1.63    0.92    1.00
  WS02004404WS02004405 CONDUIT   1278.50     0  02:12      1.63   12.53    1.00
  WS02004405WS02004406 CONDUIT   1278.76     0  02:12      1.63    2.52    1.00
  WS02004406WS02004407 CONDUIT   1278.63     0  02:12      1.74    0.57    0.94
  WS02004407WS02004409 CONDUIT   1275.69     0  02:14      1.80    0.45    0.94
  WS02004409WS02004410 CONDUIT   1276.01     0  02:14      1.62    1.65    1.00
  WS02004410WS02004411 CONDUIT   1275.89     0  02:14      1.62    1.74    1.00
  WS02004411WS02004412 CONDUIT   1275.91     0  02:14      1.62    1.81    1.00
  WS02004412WS02004413 CONDUIT   1275.76     0  02:14      1.62    0.85    1.00
  WS02004413WS02003067 CONDUIT   1276.02     0  02:14      1.98    0.55    0.76
  WS02006109WS02006110 CONDUIT   1114.96     0  02:23      2.22    2.14    1.00
  WS02006110WS02006113 CONDUIT   1115.11     0  02:23      2.22    1.01    1.00
  WS02006111WS02006112 CONDUIT   1115.57     0  02:23      2.22    0.53    1.00
  WS02006112WS02006115 CONDUIT   1276.24     0  02:13      1.62    0.75    1.00
  WS02006113WS02006111 CONDUIT   1115.30     0  02:23      2.63    1.34    1.00
  WS02006115WS02006116 CONDUIT   1276.39     0  02:13      1.63    1.64    1.00
  WS02006116WS02004401 CONDUIT   1275.70     0  02:13      1.62    1.76    1.00
  WS02006228WS02006109 CONDUIT   1259.48     0  02:13      2.51    5.50    1.00
  WS02006229WS02006228 CONDUIT   1260.11     0  02:13      2.51    4.17    1.00
  WS02006230WS02006229 CONDUIT    988.18     0  02:13      2.57   21.99    1.00
  WS02006231WS02006230 CONDUIT    453.26     0  02:10      1.34    6.88    1.00
  WS02006232WS02006231 CONDUIT    453.45     0  02:14      1.18    0.95    1.00
  WS02006234WS02006232 CONDUIT    453.12     0  02:10      1.41    0.92    1.00
  WS02006235WS02006234 CONDUIT    433.67     0  00:06      1.38    4.58    1.00
  WS02006238WS02006235 CONDUIT    448.83     0  00:06      1.45    1.00    1.00
  WS02006239WS02006238 CONDUIT    452.41     0  00:06      1.25    1.45    1.00
  WS02006240WS02006239 CONDUIT    478.76     0  00:06      1.34    1.51    1.00
  WS02006242WS02006240 CONDUIT    553.41     0  00:05      1.53    2.20    1.00
  WS02006243WS02006242 CONDUIT    598.54     0  00:05      1.56    1.28    1.00
  WS02006245WS02006243 CONDUIT    665.20     0  00:05      1.77    1.97    1.00
  WS02006247WS02006245 CONDUIT    672.02     0  00:05      1.76    5.33    1.00
  WS02006248WS02006247 CONDUIT    671.76     0  03:26      1.84    1.46    1.00
  WS02006249WS02006248 CONDUIT    769.68     0  03:26      2.10    4.22    1.00
  WS02006251WS02006249 CONDUIT   1338.46     0  02:11      3.48    3.86    1.00
  WS02006252WS02006251 CONDUIT   1154.68     0  03:20    >50.00    4.24    1.00
  WS02006253WS02006251 CONDUIT   1406.38     0  02:11      3.65    4.22    1.00
  WS02006256WS02006235 CONDUIT    288.93     0  00:00      4.23    3.06    1.00
  WS02006280WS02006229 CONDUIT   2258.39     0  02:13      4.34    0.48    1.00
  WS02006284WS02006280 CONDUIT   2247.12     0  02:13      3.00    0.94    1.00
  WS02006287WS02006284 CONDUIT   2246.49     0  02:14      2.86    1.04    1.00
  WSF200WS02003060     CONDUIT   1276.05     0  02:14      2.29    0.28    0.50
  YS02001580YS02001583 CONDUIT    112.82     0  02:08      0.68    0.44    1.00
  YS02001583YS02001586 CONDUIT    164.41     0  02:08      0.68    0.25    1.00
  YS02001586YS02001590 CONDUIT    317.86     0  02:21      1.27    0.56    1.00
  YS02001590YS02001593 CONDUIT    317.98     0  02:21      1.12    2.00    1.00
  YS02001593YS02001596 CONDUIT    317.92     0  02:24      1.75    0.50    1.00
  YS02001596YS02001600 CONDUIT    318.02     0  02:21      1.22    0.62    1.00
  YS02001600YS02001601 CONDUIT    317.81     0  02:20      1.12    0.55    1.00
  YS02001601YS02001602 CONDUIT    516.39     0  02:08      1.83    1.87    1.00
  YS02001602YS02001605 CONDUIT    515.77     0  02:08      1.82   10.91    1.00
  YS02001605YS02001607 CONDUIT    515.36     0  02:08      1.82    2.83    1.00
  YS02001607YS02001610 CONDUIT    514.48     0  02:08      0.66    0.49    1.00
  YS02001610YS02001613 CONDUIT    515.79     0  02:07      0.66    0.59    1.00
  YS02001613YS02001616 CONDUIT    517.09     0  02:07      0.66    0.44    1.00
  YS02001616YS02001619 CONDUIT    513.83     0  02:30      0.69    0.89    1.00
  YS02001619YS02001622 CONDUIT    938.28     0  02:11      1.19    1.38    1.00
  YS02001622YS02001625 CONDUIT    938.23     0  02:11      1.19    0.50    1.00
  YS02001625YS02001629 CONDUIT    937.48     0  02:11      1.19    0.45    1.00
  YS02001629YS02163301 CONDUIT    937.36     0  02:10      1.19    1.15    1.00
  YS02001633YS02163601 CONDUIT   1423.75     0  02:11      1.81    1.49    1.00
  YS02001641YS02001644 CONDUIT   1421.92     0  02:11      1.81    4.60    1.00
  YS02001644YS02001647 CONDUIT   1856.52     0  02:11      2.36    1.09    1.00
  YS02001647YS02001649 CONDUIT   1872.45     0  02:11      2.40    0.99    1.00
  YS02001649YS02001757 CONDUIT   2159.73     0  02:11      2.76    1.31    1.00
  YS02001652YS02001649 CONDUIT    591.15     0  02:15      0.76    0.29    1.00
  YS02001655YS02001652 CONDUIT    593.24     0  02:15      1.30    0.29    1.00
  YS02001658YS02001655 CONDUIT    593.33     0  02:15      1.93    0.25    1.00
  YS02001661YS02001658 CONDUIT    760.07     0  02:14      2.38    0.30    0.80
  YS02001664YS02001661 CONDUIT    533.57     0  02:13      2.34    0.17    0.51
  YS02001745YS02001748 CONDUIT    442.84     0  02:14      2.21    0.17    0.58
  YS02001748YS02001751 CONDUIT    464.34     0  02:15      1.73    0.23    0.94
  YS02001751YS02001754 CONDUIT    380.67     0  02:14      1.43    0.18    1.00
  YS02001754YS02001757 CONDUIT    381.11     0  02:16      0.49    0.15    1.00
  YS02001757CaochengTiaoxuchi CONDUIT   3285.05     0  02:15      4.84    1.42    0.86
  YS02001759YS02001757 CONDUIT   1192.49     0  02:12      1.52    0.85    1.00
  YS02001762YS02001759 CONDUIT    722.41     0  02:12      0.92    0.83    1.00
  YS02001765YS02001762 CONDUIT    714.34     0  02:12      0.91    0.67    1.00
  YS02001767YS02001765 CONDUIT    704.76     0  02:13      0.90    0.89    1.00
  YS02001770YS02001767 CONDUIT    695.07     0  02:12      0.88    2.75    1.00
  YS02001774YS02001770 CONDUIT    289.63     0  02:12      0.37    0.18    1.00
  YS02001779YS02001774 CONDUIT    292.68     0  02:12      0.38    0.15    1.00
  YS02001783YS02001784 CONDUIT   1151.05     0  02:13      2.29    1.59    1.00
  YS02001784YS02001785 CONDUIT   1151.82     0  02:13      2.29    2.68    1.00
  YS02001786YS02001788 CONDUIT   1152.64     0  02:13      2.46    2.22    0.89
  YS02001788YS02001790 CONDUIT   1162.70     0  02:14      2.69    0.86    0.83
  YS02001790YS02001791 CONDUIT   1276.96     0  02:16      3.42    1.39    0.70
  YS02001791YS02001793 CONDUIT   1239.78     0  02:15      6.71    0.53    0.44
  YS02001793JiankangQianchi CONDUIT   1367.75     0  02:15      2.73    0.11    0.65
  YS02001882YS02001884 CONDUIT     62.33     0  02:10      0.10    0.07    1.00
  YS02001884YS02001887 CONDUIT     81.67     0  02:10      0.10    0.11    1.00
  YS02001887YS02001890 CONDUIT    500.49     0  02:13      0.64    0.86    1.00
  YS02001890YS02001895 CONDUIT    490.74     0  02:13      0.62    0.23    1.00
  YS02001895YS02001898 CONDUIT    491.60     0  02:13      0.63    0.85    1.00
  YS02001898YS02001901 CONDUIT    492.17     0  02:13      0.63    0.32    1.00
  YS02001901YS02001904 CONDUIT    491.80     0  02:13      0.63    0.76    1.00
  YS02001904YS02001907 CONDUIT    492.49     0  02:13      0.63    0.17    1.00
  YS02001907YS02006553 CONDUIT    792.44     0  02:22      0.88    0.93    1.00
  YS02001910YS02001907 CONDUIT    977.48     0  02:13      1.24    0.55    1.00
  YS02001915YS02001910 CONDUIT    977.34     0  02:13      1.24    0.49    1.00
  YS02001918YS02001915 CONDUIT    451.85     0  02:13      0.58    0.25    1.00
  YS02001920YS02001918 CONDUIT    450.71     0  02:13      0.65    0.44    1.00
  YS02001923YS02001920 CONDUIT    446.79     0  02:13      0.72    0.20    1.00
  YS02001926YS02001923 CONDUIT    402.62     0  02:13      0.98    0.57    1.00
  YS02001929YS02001926 CONDUIT    399.25     0  02:13      1.16    0.19    1.00
  YS02006553YS02006556 CONDUIT    792.52     0  02:22      1.01    0.68    1.00
  YS02006556YS02006558 CONDUIT    794.76     0  02:22      1.01    0.63    1.00
  YS02006558YS02006561 CONDUIT   1163.53     0  02:12      4.12    2.57    1.00
  YS02006561YS02001783 CONDUIT   1150.78     0  02:13      2.29    0.60    1.00
  YS02163301YS02001633 CONDUIT    936.06     0  02:10      1.19    0.88    1.00
  YS02163601YS02164001 CONDUIT   1422.06     0  02:11      1.81    1.26    1.00
  YS02164001YS02001641 CONDUIT   1422.38     0  02:11      1.81    1.94    1.00
  YSB1154YSB6556       CONDUIT    276.07     0  02:14      0.72    0.50    1.00
  YSB1171HS02004479    CONDUIT    427.24     0  02:11      0.85    0.28    1.00
  YSB1174YSB1171       CONDUIT    236.76     0  02:13      0.62    0.36    1.00
  YSB6556YSB1171       CONDUIT    276.22     0  02:14      0.72    0.28    1.00
  CC-R1                PUMP      3415.00     0  00:05              5.00
  CC-R2                PUMP      3415.00     0  00:05              5.00
  CC-S1                PUMP      1000.00     0  00:05              5.00
  CC-S2                PUMP      1000.00     0  00:05              5.00
  JK-R1                PUMP      5000.00     0  01:45              5.00
  JK-R2                PUMP      5000.00     0  01:45              5.00
  JK-S                 PUMP      1500.00     0  00:20              5.00
  XR-1                 PUMP        95.00     0  00:00              1.00
  XR-2                 PUMP        95.00     0  00:00              1.00
  XR-3                 PUMP        95.00     0  00:00              1.00
  XR-4                 PUMP        95.00     0  00:00              1.00
  
  
  ***************************
  Flow Classification Summary
  ***************************
  
  -------------------------------------------------------------------------------------
                      Adjusted    ---------- Fraction of Time in Flow Class ---------- 
                       /Actual         Up    Down  Sub   Sup   Up    Down  Norm  Inlet 
  Conduit               Length    Dry  Dry   Dry   Crit  Crit  Crit  Crit  Ltd   Ctrl  
  -------------------------------------------------------------------------------------
  1                       1.00   0.00  0.00  0.00  0.00  1.00  0.00  0.00  0.31  0.00
  HS02004478WS02006287    1.00   0.11  0.00  0.00  0.57  0.32  0.00  0.00  0.61  0.00
  HS02004479HS02004480    1.00   0.04  0.00  0.00  0.96  0.00  0.00  0.00  0.12  0.00
  HS02004480HS02004478    1.00   0.09  0.00  0.00  0.50  0.00  0.00  0.41  0.00  0.00
  HS02004770HS02004777    1.00   0.00  0.09  0.00  0.91  0.00  0.00  0.00  0.03  0.00
  HS02004777HS02004785    1.00   0.00  0.00  0.00  1.00  0.00  0.00  0.00  0.13  0.00
  HS02004785HS02004788    1.00   0.00  0.00  0.00  1.00  0.00  0.00  0.00  0.00  0.00
  HS02004788HS02004792    1.00   0.00  0.00  0.00  0.99  0.01  0.00  0.00  0.93  0.00
  HS02004792HS02004799    1.00   0.00  0.00  0.00  0.99  0.01  0.00  0.00  0.89  0.00
  HS02004799HS02004480    1.00   0.00  0.04  0.00  0.89  0.00  0.07  0.00  0.00  0.00
  HS02004802HS02004478    1.00   0.09  0.00  0.00  0.90  0.00  0.00  0.00  0.03  0.00
  HS02004807HS02004802    1.00   0.09  0.00  0.00  0.90  0.00  0.00  0.01  0.00  0.00
  HS02004817HS02004807    1.00   0.00  0.09  0.00  0.91  0.00  0.00  0.00  0.01  0.00
  HS02004817HS02004824    1.00   0.00  0.00  0.00  1.00  0.00  0.00  0.00  0.85  0.00
  HS02004824HS02004830    1.00   0.00  0.00  0.00  1.00  0.00  0.00  0.00  0.01  0.00
  HS02004830HS02004837    1.00   0.00  0.00  0.00  1.00  0.00  0.00  0.00  0.91  0.00
  HS02004837HS02004842    1.00   0.00  0.00  0.00  0.99  0.01  0.00  0.00  0.11  0.00
  HS02004842HS02004848    1.00   0.00  0.09  0.00  0.91  0.00  0.00  0.00  0.59  0.00
  HS02004848HS02004852    1.00   0.09  0.00  0.00  0.91  0.00  0.00  0.00  0.70  0.00
  HS02004852HS02004856    1.00   0.09  0.01  0.00  0.90  0.00  0.00  0.00  0.71  0.00
  HS02004856HS02004862    1.00   0.00  0.12  0.00  0.88  0.00  0.00  0.00  0.76  0.00
  HS02004862HS02004870    1.00   0.00  0.00  0.00  1.00  0.00  0.00  0.00  0.04  0.00
  HS02004870HS02004876    1.00   0.01  0.00  0.00  0.99  0.00  0.00  0.00  0.93  0.00
  HS02004876HS02004881    1.00   0.01  0.00  0.00  0.79  0.20  0.00  0.00  0.00  0.00
  HS02004881HS02006253    1.00   0.00  0.01  0.00  0.31  0.03  0.00  0.64  0.11  0.00
  HS02004901HS02004770    1.00   0.09  0.00  0.00  0.91  0.00  0.00  0.00  0.00  0.00
  WS02001211WS02001212    1.00   0.00  0.03  0.00  0.97  0.00  0.00  0.00  0.00  0.00
  WS02001212WS02001213    1.00   0.03  0.00  0.00  0.43  0.00  0.54  0.00  0.00  0.00
  WS02001213WS02003059    1.00   0.00  0.00  0.00  0.99  0.00  0.00  0.00  0.00  0.00
  WS02003059WS02003060    1.00   0.00  0.00  0.00  1.00  0.00  0.00  0.00  0.03  0.00
  WS02003060WS02003069    1.00   0.00  0.00  0.00  0.99  0.01  0.00  0.00  0.58  0.00
  WS02003066WSF200        1.00   0.07  0.00  0.00  0.00  0.93  0.00  0.00  0.73  0.00
  WS02003067WS02003066    1.00   0.06  0.00  0.00  0.94  0.00  0.00  0.00  0.00  0.00
  WS02003069WS02003072    1.00   0.00  0.00  0.00  1.00  0.00  0.00  0.00  0.72  0.00
  WS02003072WS02003073    1.00   0.00  0.00  0.00  0.00  0.00  0.00  1.00  0.00  0.00
  WS02004138WS02004139    1.00   0.00  0.01  0.00  0.97  0.01  0.00  0.02  0.98  0.00
  WS02004139WS02001211    1.00   0.00  0.00  0.00  0.99  0.00  0.00  0.00  0.00  0.00
  WS02004401WS02004402    1.00   0.03  0.00  0.00  0.97  0.00  0.00  0.00  0.00  0.00
  WS02004402WS02004403    1.00   0.03  0.00  0.00  0.97  0.00  0.00  0.00  0.00  0.00
  WS02004403WS02004404    1.00   0.00  0.03  0.00  0.97  0.00  0.00  0.00  0.00  0.00
  WS02004404WS02004405    1.00   0.00  0.00  0.00  1.00  0.00  0.00  0.00  0.00  0.00
  WS02004405WS02004406    1.00   0.00  0.00  0.00  1.00  0.00  0.00  0.00  0.00  0.00
  WS02004406WS02004407    1.00   0.00  0.04  0.00  0.96  0.00  0.00  0.00  0.00  0.00
  WS02004407WS02004409    1.00   0.05  0.00  0.00  0.95  0.00  0.00  0.00  0.87  0.00
  WS02004409WS02004410    1.00   0.05  0.00  0.00  0.95  0.00  0.00  0.00  0.00  0.00
  WS02004410WS02004411    1.00   0.05  0.00  0.00  0.95  0.00  0.00  0.00  0.00  0.00
  WS02004411WS02004412    1.00   0.05  0.00  0.00  0.95  0.00  0.00  0.00  0.00  0.00
  WS02004412WS02004413    1.00   0.05  0.00  0.00  0.95  0.00  0.00  0.00  0.01  0.00
  WS02004413WS02003067    1.00   0.05  0.01  0.00  0.00  0.00  0.94  0.00  0.00  0.00
  WS02006109WS02006110    1.00   0.00  0.01  0.00  0.98  0.00  0.01  0.00  0.00  0.00
  WS02006110WS02006113    1.00   0.01  0.01  0.00  0.98  0.00  0.00  0.00  0.00  0.00
  WS02006111WS02006112    1.00   0.02  0.00  0.00  0.97  0.00  0.00  0.00  0.82  0.00
  WS02006112WS02006115    1.00   0.02  0.00  0.00  0.97  0.00  0.00  0.00  0.00  0.00
  WS02006113WS02006111    1.00   0.02  0.00  0.00  0.26  0.72  0.00  0.00  0.07  0.00
  WS02006115WS02006116    1.00   0.03  0.00  0.00  0.96  0.00  0.00  0.01  0.00  0.00
  WS02006116WS02004401    1.00   0.03  0.00  0.00  0.97  0.00  0.00  0.00  0.00  0.00
  WS02006228WS02006109    1.00   0.00  0.00  0.00  1.00  0.00  0.00  0.00  0.00  0.00
  WS02006229WS02006228    1.00   0.00  0.00  0.00  0.99  0.00  0.00  0.01  0.00  0.00
  WS02006230WS02006229    1.00   0.00  0.00  0.00  0.98  0.00  0.00  0.02  0.03  0.00
  WS02006231WS02006230    1.00   0.00  0.00  0.00  0.46  0.00  0.54  0.00  0.00  0.00
[...]
  WS02006256WS02006235    1.00   0.00  0.00  0.00  0.99  0.01  0.00  0.00  0.00  0.00
  WS02006280WS02006229    1.00   0.10  0.00  0.00  0.20  0.04  0.00  0.66  0.00  0.00
  WS02006284WS02006280    1.00   0.10  0.00  0.00  0.14  0.02  0.00  0.75  0.00  0.00
  WS02006287WS02006284    1.00   0.08  0.03  0.00  0.47  0.42  0.00  0.00  0.67  0.00
  WSF200WS02003060        1.00   0.00  0.07  0.00  0.57  0.37  0.00  0.00  0.68  0.00
  YS02001580YS02001583    1.00   0.27  0.45  0.00  0.29  0.00  0.00  0.00  0.67  0.00
  YS02001583YS02001586    1.00   0.33  0.31  0.00  0.35  0.00  0.00  0.00  0.68  0.00
  YS02001586YS02001590    1.00   0.09  0.00  0.00  0.58  0.03  0.00  0.30  0.35  0.00
  YS02001590YS02001593    1.00   0.09  0.00  0.00  0.14  0.00  0.77  0.00  0.00  0.00
  YS02001593YS02001596    1.00   0.10  0.00  0.00  0.17  0.01  0.00  0.72  0.02  0.00
  YS02001596YS02001600    1.00   0.10  0.00  0.00  0.30  0.03  0.00  0.58  0.05  0.00
  YS02001600YS02001601    1.00   0.09  0.00  0.00  0.90  0.00  0.00  0.00  0.64  0.00
  YS02001601YS02001602    1.00   0.09  0.01  0.00  0.90  0.00  0.00  0.00  0.00  0.00
  YS02001602YS02001605    1.00   0.10  0.00  0.00  0.90  0.00  0.00  0.00  0.00  0.00
  YS02001605YS02001607    1.00   0.10  0.00  0.00  0.90  0.00  0.00  0.00  0.00  0.00
  YS02001607YS02001610    1.00   0.09  0.00  0.00  0.90  0.00  0.00  0.00  0.02  0.00
  YS02001610YS02001613    1.00   0.09  0.00  0.00  0.91  0.00  0.00  0.00  0.01  0.00
  YS02001613YS02001616    1.00   0.09  0.00  0.00  0.91  0.00  0.00  0.00  0.01  0.00
  YS02001616YS02001619    1.00   0.09  0.00  0.00  0.91  0.00  0.00  0.00  0.00  0.00
  YS02001619YS02001622    1.00   0.09  0.00  0.00  0.91  0.00  0.00  0.00  0.35  0.00
  YS02001622YS02001625    1.00   0.09  0.00  0.00  0.91  0.00  0.00  0.00  0.06  0.00
  YS02001625YS02001629    1.00   0.09  0.03  0.00  0.20  0.00  0.67  0.00  0.00  0.00
  YS02001629YS02163301    1.00   0.11  0.01  0.00  0.89  0.00  0.00  0.00  0.00  0.00
  YS02001633YS02163601    1.00   0.00  0.01  0.00  0.99  0.00  0.00  0.00  0.15  0.00
  YS02001641YS02001644    1.00   0.00  0.01  0.00  0.99  0.00  0.00  0.00  0.00  0.00
  YS02001644YS02001647    1.00   0.00  0.12  0.00  0.88  0.00  0.00  0.00  0.00  0.00
  YS02001647YS02001649    1.00   0.00  0.12  0.00  0.45  0.43  0.00  0.00  0.59  0.00
  YS02001649YS02001757    1.00   0.00  0.00  0.00  0.51  0.49  0.00  0.00  0.61  0.00
  YS02001652YS02001649    1.00   0.00  0.00  0.00  0.97  0.03  0.00  0.00  0.79  0.00
  YS02001655YS02001652    1.00   0.00  0.00  0.00  0.23  0.04  0.00  0.72  0.08  0.00
  YS02001658YS02001655    1.00   0.00  0.10  0.00  0.48  0.42  0.00  0.00  0.77  0.00
  YS02001661YS02001658    1.00   0.10  0.00  0.00  0.34  0.56  0.00  0.00  0.74  0.00
  YS02001664YS02001661    1.00   0.09  0.00  0.00  0.70  0.21  0.00  0.00  0.86  0.00
  YS02001745YS02001748    1.00   0.00  0.00  0.00  0.02  0.01  0.00  0.96  0.02  0.00
  YS02001748YS02001751    1.00   0.00  0.00  0.00  0.61  0.39  0.00  0.00  0.83  0.00
  YS02001751YS02001754    1.00   0.00  0.00  0.00  0.13  0.02  0.00  0.85  0.04  0.00
  YS02001754YS02001757    1.00   0.00  0.00  0.00  1.00  0.00  0.00  0.00  0.90  0.00
  YS02001757CaochengTiaoxuchi    1.00   0.00  0.00  0.00  0.75  0.25  0.00  0.00  0.93  0.00
  YS02001759YS02001757    1.00   0.00  0.00  0.00  1.00  0.00  0.00  0.00  0.64  0.00
  YS02001762YS02001759    1.00   0.00  0.00  0.00  1.00  0.00  0.00  0.00  0.05  0.00
  YS02001765YS02001762    1.00   0.00  0.00  0.00  1.00  0.00  0.00  0.00  0.77  0.00
  YS02001767YS02001765    1.00   0.00  0.00  0.00  1.00  0.00  0.00  0.00  0.00  0.00
  YS02001770YS02001767    1.00   0.00  0.00  0.00  1.00  0.00  0.00  0.00  0.00  0.00
  YS02001774YS02001770    1.00   0.00  0.09  0.00  0.73  0.00  0.18  0.00  0.04  0.00
  YS02001779YS02001774    1.00   0.00  0.00  0.00  1.00  0.00  0.00  0.00  0.82  0.00
  YS02001783YS02001784    1.00   0.00  0.13  0.00  0.87  0.00  0.00  0.00  0.58  0.00
  YS02001784YS02001785    1.00   0.00  0.00  0.00  1.00  0.00  0.00  0.00  0.18  0.00
  YS02001786YS02001788    1.00   0.00  0.00  0.00  0.63  0.37  0.00  0.00  0.00  0.00
  YS02001788YS02001790    1.00   0.00  0.00  0.00  0.17  0.83  0.00  0.00  0.84  0.00
  YS02001790YS02001791    1.00   0.00  0.00  0.00  0.02  0.98  0.00  0.00  0.15  0.00
  YS02001791YS02001793    1.00   0.00  0.00  0.00  0.00  1.00  0.00  0.00  0.00  0.00
  YS02001793JiankangQianchi    1.00   0.00  0.00  0.00  0.98  0.02  0.00  0.00  0.98  0.00
  YS02001882YS02001884    1.00   0.11  0.01  0.00  0.89  0.00  0.00  0.00  0.00  0.00
  YS02001884YS02001887    1.00   0.06  0.03  0.00  0.92  0.00  0.00  0.00  0.00  0.00
  YS02001887YS02001890    1.00   0.00  0.00  0.00  0.96  0.00  0.03  0.00  0.00  0.00
  YS02001890YS02001895    1.00   0.00  0.11  0.00  0.89  0.00  0.00  0.00  0.00  0.00
  YS02001895YS02001898    1.00   0.11  0.00  0.00  0.86  0.00  0.02  0.00  0.00  0.00
  YS02001898YS02001901    1.00   0.11  0.00  0.00  0.88  0.00  0.00  0.00  0.01  0.00
  YS02001901YS02001904    1.00   0.11  0.00  0.00  0.89  0.00  0.00  0.00  0.00  0.00
  YS02001904YS02001907    1.00   0.00  0.11  0.00  0.89  0.00  0.00  0.00  0.00  0.00
  YS02001907YS02006553    1.00   0.00  0.03  0.00  0.97  0.00  0.00  0.00  0.00  0.00
  YS02001910YS02001907    1.00   0.00  0.00  0.00  0.96  0.00  0.00  0.03  0.12  0.00
  YS02001915YS02001910    1.00   0.00  0.00  0.00  0.97  0.03  0.00  0.00  0.17  0.00
  YS02001918YS02001915    1.00   0.00  0.01  0.00  0.97  0.02  0.00  0.00  0.79  0.00
  YS02001920YS02001918    1.00   0.00  0.01  0.00  0.99  0.00  0.00  0.00  0.00  0.00
  YS02001923YS02001920    1.00   0.00  0.00  0.00  1.00  0.00  0.00  0.00  0.95  0.00
  YS02001926YS02001923    1.00   0.00  0.06  0.00  0.05  0.00  0.88  0.00  0.00  0.00
  YS02001929YS02001926    1.00   0.00  0.09  0.00  0.91  0.00  0.00  0.00  0.85  0.00
  YS02006553YS02006556    1.00   0.01  0.00  0.00  0.99  0.00  0.00  0.00  0.03  0.00
  YS02006556YS02006558    1.00   0.00  0.00  0.00  1.00  0.00  0.00  0.00  0.00  0.00
  YS02006558YS02006561    1.00   0.13  0.00  0.00  0.05  0.82  0.00  0.00  0.18  0.00
  YS02006561YS02001783    1.00   0.13  0.00  0.00  0.10  0.77  0.00  0.00  0.71  0.00
  YS02163301YS02001633    1.00   0.00  0.11  0.00  0.89  0.00  0.00  0.00  0.00  0.00
  YS02163601YS02164001    1.00   0.00  0.07  0.00  0.93  0.00  0.00  0.00  0.00  0.00
  YS02164001YS02001641    1.00   0.01  0.06  0.00  0.93  0.00  0.00  0.00  0.06  0.00
  YSB1154YSB6556          1.00   0.09  0.00  0.00  0.91  0.00  0.00  0.00  0.02  0.00
  YSB1171HS02004479       1.00   0.04  0.00  0.00  0.95  0.00  0.00  0.01  0.10  0.00
  YSB1174YSB1171          1.00   0.05  0.02  0.00  0.93  0.00  0.00  0.00  0.00  0.00
  YSB6556YSB1171          1.00   0.05  0.04  0.00  0.91  0.00  0.00  0.00  0.00  0.00
  
  
  *************************
  Conduit Surcharge Summary
  *************************
  
  ----------------------------------------------------------------------------
                                                           Hours        Hours 
                         --------- Hours Full --------   Above Full   Capacity
  Conduit                Both Ends  Upstream  Dnstream   Normal Flow   Limited
  ----------------------------------------------------------------------------
  HS02004478WS02006287        0.29      0.29      0.45      0.01         0.01
  HS02004479HS02004480        0.46      0.46      0.48      0.01         0.01
  HS02004480HS02004478        0.39      0.45      0.39      1.46         0.39
  HS02004770HS02004777        0.37      0.37      0.37      0.10         0.06
  HS02004777HS02004785        0.33      0.33      0.37      0.01         0.01
  HS02004785HS02004788        0.32      0.33      0.32      1.14         0.31
  HS02004788HS02004792        0.32      0.32      0.42      0.01         0.01
  HS02004792HS02004799        0.42      0.42      0.53      0.01         0.01
  HS02004799HS02004480        0.45      0.45      0.53      0.62         0.01
  HS02004802HS02004478        0.40      0.40      0.47      0.01         0.01
  HS02004807HS02004802        0.43      0.43      0.46      0.10         0.10
  HS02004817HS02004807        0.43      0.43      0.93      0.01         0.01
  HS02004817HS02004824        0.31      0.31      0.93      0.01         0.01
  HS02004824HS02004830        0.28      0.28      0.31      0.01         0.01
  HS02004830HS02004837        0.25      0.25      0.28      0.01         0.01
  HS02004837HS02004842        0.25      0.25      0.37      0.01         0.01
  HS02004842HS02004848        0.20      0.20      0.37      0.01         0.01
  HS02004848HS02004852        0.20      0.20      0.23      0.02         0.01
  HS02004852HS02004856        0.22      0.23      0.24      0.02         0.01
  HS02004856HS02004862        0.20      0.20      0.24      0.01         0.01
  HS02004862HS02004870        0.24      0.24      0.25      0.02         0.04
  HS02004870HS02004876        0.25      0.25      0.30      0.01         0.01
  HS02004876HS02004881        0.28      0.30      0.28      1.14         0.27
  HS02004881HS02006253        0.28      0.28      0.94      0.01         0.01
  HS02004901HS02004770        0.37      0.37      0.38      0.01         0.01
  WS02003072WS02003073        0.01      0.01      0.01      1.93         0.01
  WS02004401WS02004402        1.18      1.18      1.19      1.02         1.01
  WS02004402WS02004403        1.19      1.19      1.19      1.17         1.16
  WS02004403WS02004404        1.19      1.19      1.29      0.01         0.01
  WS02004404WS02004405        1.28      1.29      1.28      2.49         1.28
  WS02004405WS02004406        1.26      1.28      1.26      1.40         1.26
  WS02004406WS02004407        0.01      0.01      1.26      0.01         0.01
  WS02004407WS02004409        0.01      0.01      0.72      0.01         0.01
  WS02004409WS02004410        0.71      0.72      0.71      1.06         0.71
  WS02004410WS02004411        0.64      0.71      0.64      1.14         0.64
  WS02004411WS02004412        0.55      0.64      0.55      1.16         0.55
  WS02004412WS02004413        0.55      0.55      0.99      0.01         0.01
  WS02004413WS02003067        0.01      0.01      0.99      0.01         0.01
  WS02006109WS02006110        1.36      1.36      1.56      1.36         0.01
  WS02006110WS02006113        0.96      0.96      1.55      0.16         0.01
  WS02006111WS02006112        0.93      0.93      1.86      0.01         0.01
  WS02006112WS02006115        1.08      1.08      1.42      0.01         0.01
  WS02006113WS02006111        0.94      0.96      0.95      1.01         0.94
  WS02006115WS02006116        1.09      1.09      1.10      1.05         1.05
  WS02006116WS02004401        1.17      1.17      1.18      1.15         1.14
  WS02006228WS02006109        1.53      1.56      1.53      2.01         1.53
  WS02006229WS02006228        1.53      1.54      1.53      1.79         1.53
  WS02006230WS02006229        1.60      1.64      1.60      2.43         0.72
  WS02006231WS02006230        1.25      1.25      1.27      1.92         0.77
  WS02006232WS02006231        1.26      1.26      1.35      0.01         0.11
  WS02006234WS02006232        1.29      1.29      1.35      0.01         0.01
  WS02006235WS02006234        1.26      1.26      1.28      1.72         0.75
  WS02006238WS02006235        1.29      1.29      1.30      0.01         0.20
  WS02006239WS02006238        1.28      1.29      1.29      0.60         0.03
  WS02006240WS02006239        1.19      1.20      1.23      0.61         0.03
  WS02006242WS02006240        1.19      1.19      1.28      0.76         0.63
  WS02006243WS02006242        1.14      1.14      1.21      0.01         0.01
  WS02006245WS02006243        1.10      1.11      1.12      0.08         0.02
  WS02006247WS02006245        1.10      1.11      1.10      1.36         0.25
  WS02006248WS02006247        1.07      1.07      1.10      0.02         0.02
  WS02006249WS02006248        1.05      1.06      1.07      0.35         0.01
  WS02006251WS02006249        1.06      1.11      1.07      0.90         0.77
  WS02006252WS02006251        1.04      5.13      1.14      0.46         0.01
  WS02006253WS02006251        1.07      1.10      1.11      0.64         0.07
  WS02006256WS02006235        2.04      2.08      5.72      0.11         0.01
  WS02006280WS02006229        0.56      0.56      0.67      0.01         0.01
  WS02006284WS02006280        0.48      0.48      0.55      0.01         0.01
  WS02006287WS02006284        0.39      0.39      0.49      0.13         0.13
  YS02001580YS02001583        0.34      0.34      0.37      0.01         0.01
  YS02001583YS02001586        0.34      0.34      0.43      0.01         0.01
  YS02001586YS02001590        0.44      0.44      0.50      0.01         0.01
  YS02001590YS02001593        0.49      0.49      0.51      0.53         0.01
  YS02001593YS02001596        0.51      0.51      0.59      0.01         0.01
  YS02001596YS02001600        0.63      0.63      0.72      0.01         0.01
  YS02001600YS02001601        0.78      0.78      1.07      0.01         0.01
  YS02001601YS02001602        0.94      0.94      1.12      0.74         0.01
  YS02001602YS02001605        0.89      0.89      0.94      1.92         0.01
  YS02001605YS02001607        0.84      0.89      0.84      1.02         0.84
  YS02001607YS02001610        0.44      0.44      0.46      0.01         0.01
  YS02001610YS02001613        0.43      0.43      0.46      0.01         0.01
  YS02001613YS02001616        0.39      0.39      0.43      0.01         0.01
  YS02001616YS02001619        0.38      0.38      0.39      0.01         0.01
  YS02001619YS02001622        0.37      0.38      0.37      0.53         0.36
  YS02001622YS02001625        0.37      0.37      0.54      0.01         0.01
  YS02001625YS02001629        0.30      0.30      0.54      0.01         0.01
  YS02001629YS02163301        0.52      0.52      0.53      0.28         0.26
  YS02001633YS02163601        0.55      0.55      0.57      0.40         0.39
  YS02001641YS02001644        0.39      0.45      0.39      1.17         0.39
  YS02001644YS02001647        0.19      0.19      0.39      0.05         0.01
  YS02001647YS02001649        0.19      0.19      0.22      0.01         0.01
  YS02001649YS02001757        0.21      0.22      0.21      0.30         0.20
  YS02001652YS02001649        0.14      0.14      0.22      0.01         0.01
  YS02001655YS02001652        0.07      0.07      0.13      0.01         0.01
  YS02001658YS02001655        0.01      0.01      0.07      0.01         0.01
  YS02001661YS02001658        0.01      0.01      0.01      0.01         0.01
  YS02001748YS02001751        0.01      0.01      0.01      0.01         0.01
  YS02001751YS02001754        0.01      0.01      0.07      0.01         0.01
  YS02001754YS02001757        0.08      0.08      0.21      0.01         0.01
  YS02001757CaochengTiaoxuchi        0.01      0.21      0.01      0.30         0.01
  YS02001759YS02001757        0.17      0.17      0.21      0.01         0.01
  YS02001762YS02001759        0.16      0.16      0.17      0.01         0.01
  YS02001765YS02001762        0.15      0.15      0.16      0.01         0.01
  YS02001767YS02001765        0.13      0.13      0.15      0.01         0.01
  YS02001770YS02001767        0.13      0.14      0.13      0.37         0.12
  YS02001774YS02001770        0.13      0.13      0.16      0.01         0.01
  YS02001779YS02001774        0.08      0.08      0.16      0.01         0.01
  YS02001783YS02001784        0.29      0.31      0.29      0.43         0.29
  YS02001784YS02001785        0.20      0.29      0.20      0.61         0.20
  YS02001786YS02001788        0.01      0.20      0.01      0.52         0.01
  YS02001790YS02001791        0.01      0.01      0.01      0.28         0.01
  YS02001793JiankangQianchi        0.01      0.01      3.34      0.01         0.01
  YS02001882YS02001884        0.26      0.26      0.27      0.01         0.01
  YS02001884YS02001887        0.29      0.29      0.30      0.01         0.01
  YS02001887YS02001890        0.31      0.31      0.32      0.01         0.01
  YS02001890YS02001895        0.25      0.25      0.34      0.01         0.01
  YS02001895YS02001898        0.25      0.25      0.25      0.01         0.01
  YS02001898YS02001901        0.26      0.26      0.29      0.01         0.01
  YS02001901YS02001904        0.28      0.28      0.29      0.01         0.01
  YS02001904YS02001907        0.28      0.28      0.51      0.01         0.01
  YS02001907YS02006553        0.62      0.62      0.67      0.01         0.01
  YS02001910YS02001907        0.33      0.33      0.49      0.01         0.01
  YS02001915YS02001910        0.26      0.26      0.33      0.01         0.01
  YS02001918YS02001915        0.19      0.19      0.26      0.01         0.01
  YS02001920YS02001918        0.19      0.19      0.20      0.01         0.01
  YS02001923YS02001920        0.15      0.15      0.20      0.01         0.01
  YS02001926YS02001923        0.01      0.01      0.01      0.01         0.01
  YS02001929YS02001926        0.01      0.01      0.01      0.01         0.01
  YS02006553YS02006556        0.41      0.41      0.50      0.01         0.01
  YS02006556YS02006558        0.45      0.45      0.52      0.01         0.01
  YS02006558YS02006561        0.22      0.40      0.22      0.57         0.22
  YS02006561YS02001783        0.16      0.16      0.31      0.01         0.01
  YS02163301YS02001633        0.53      0.53      0.57      0.01         0.01
  YS02163601YS02164001        0.46      0.46      0.57      0.24         0.01
  YS02164001YS02001641        0.45      0.46      0.45      0.62         0.44
  YSB1154YSB6556              0.51      0.51      0.63      0.01         0.01
  YSB1171HS02004479           0.41      0.41      0.64      0.01         0.01
  YSB1174YSB1171              0.57      0.57      0.85      0.01         0.01
  YSB6556YSB1171              0.51      0.51      1.01      0.01         0.01
  
  
  ***************
  Pumping Summary
  ***************
  
  ---------------------------------------------------------------------------------------------------------
                                                  Min       Avg       Max     Total     Power    % Time Off
                        Percent   Number of      Flow      Flow      Flow    Volume     Usage    Pump Curve
  Pump                 Utilized   Start-Ups       LPS       LPS       LPS  10^6 ltr     Kw-hr    Low   High
  ---------------------------------------------------------------------------------------------------------
  CC-R1                    3.75          18      0.00   2982.11   3415.00     2.872     47.45    0.0  100.0
  CC-R2                    4.38          23      0.00   3053.41   3415.00     3.490     57.67    0.0  100.0
  CC-S1                    3.21          17      0.00    841.41   1000.00     0.683      6.62    0.0    0.0
  CC-S2                    6.43          25      0.00    929.41   1000.00     1.612     15.92    0.0    0.0
  JK-R1                    2.02          18      0.00   2362.50   5000.00     1.366     12.49    0.0    0.0
  JK-R2                    0.71          14      0.00   4222.22   5000.00     0.840      6.80    0.0    0.0
  JK-S                     3.22          35      0.00    801.78   1500.00     0.776     13.58    0.0    0.0
  XR-1                    97.91           2      0.00     95.00     95.00     2.679      9.61    0.0    0.0
  XR-2                    93.94           2      0.00     95.00     95.00     2.570      8.77    0.0    0.0
  XR-3                     0.00           1      0.00     95.00     95.00     0.000      0.00    0.0    0.0
  XR-4                     0.00           1      0.00     95.00     95.00     0.000      0.00    0.0    0.0
  

  Analysis begun on:  Thu Jul 13 10:45:45 2023
  Analysis ended on:  Thu Jul 13 10:45:57 2023
  Total elapsed time: 00:00:12