
  OWA STORM WATER MANAGEMENT MODEL - VERSION v5.1.14 (OWA 2022-07-31)
  --------------------------------------------------------------

  WARNING 04: minimum elevation drop used for Conduit WS02004404WS02004405
  WARNING 03: negative offset ignored for Link YS02001904YS02001907
  
  *********************************************************
  NOTE: The summary statistics displayed in this report are
  based on results found at every computational time step,  
  not just on results from each reporting time step.
  *********************************************************
  
  ****************
  Analysis Options
  ****************
  Flow Units ............... LPS
  Process Models:
    Rainfall/Runoff ........ YES
    RDII ................... NO
    Snowmelt ............... NO
    Groundwater ............ NO
    Flow Routing ........... YES
    Ponding Allowed ........ NO
    Water Quality .......... NO
  Infiltration Method ...... HORTON
  Flow Routing Method ...... DYNWAVE
  Surcharge Method ......... EXTRAN
  Starting Date ............ 08/28/2015 08:00:00
  Ending Date .............. 08/28/2015 16:00:00
  Antecedent Dry Days ...... 8.0
  Report Time Step ......... 00:01:00
  Wet Time Step ............ 00:01:00
  Dry Time Step ............ 00:01:00
  Routing Time Step ........ 30.00 sec
  Variable Time Step ....... YES
  Maximum Trials ........... 8
  Number of Threads ........ 2
  Head Tolerance ........... 0.001500 m
  
  
  **************************        Volume         Depth
  Runoff Quantity Continuity     hectare-m            mm
  **************************     ---------       -------
  Initial LID Storage ......         0.072         1.184
  Total Precipitation ......         4.052        66.883
  Evaporation Loss .........         0.000         0.000
  Infiltration Loss ........         0.209         3.458
  Surface Runoff ...........         3.113        51.383
  Final Storage ............         0.802        13.241
  Continuity Error (%) .....        -0.022
  
  
  **************************        Volume        Volume
  Flow Routing Continuity        hectare-m      10^6 ltr
  **************************     ---------     ---------
  Dry Weather Inflow .......         0.630         6.296
  Wet Weather Inflow .......         3.113        31.125
  Groundwater Inflow .......         0.000         0.000
  RDII Inflow ..............         0.000         0.000
  External Inflow ..........         0.105         1.045
  External Outflow .........         2.547        25.472
  Flooding Loss ............         1.288        12.884
  Evaporation Loss .........         0.000         0.000
  Exfiltration Loss ........         0.000         0.000
  Initial Stored Volume ....         0.303         3.031
  Final Stored Volume ......         0.320         3.202
  Continuity Error (%) .....        -0.148
  
  
  *************************
  Highest Continuity Errors
  *************************
  Node YS02001884 (5.07%)
  Node YS02001583 (-4.64%)
  Node HS02004842 (1.79%)
  Node YS02001774 (1.47%)
  
  
  ***************************
  Time-Step Critical Elements
  ***************************
  Link WS02006280WS02006229 (51.56%)
  Link WS02006252WS02006251 (20.31%)
  Link YS02001791YS02001793 (6.35%)
  Link WS02006238WS02006235 (5.24%)
  Link WS02004404WS02004405 (5.05%)
  
  
  ********************************
  Highest Flow Instability Indexes
  ********************************
  Link WS02006113WS02006111 (23)
  Link WS02006252WS02006251 (20)
  Link WS02004404WS02004405 (19)
  Link WS02006229WS02006228 (18)
  Link WS02006238WS02006235 (18)
  
  
  *************************
  Routing Time Step Summary
  *************************
  Minimum Time Step           :     0.01 sec
  Average Time Step           :     2.45 sec
  Maximum Time Step           :     6.46 sec
  Percent in Steady State     :    -0.00
  Average Iterations per Step :     3.38
  Percent Not Converging      :    14.36
  
  
  ***************************
  Subcatchment Runoff Summary
  ***************************
  
  ------------------------------------------------------------------------------------------------------------------------------
                            Total      Total      Total      Total     Imperv       Perv      Total       Total     Peak  Runoff
                           Precip      Runon       Evap      Infil     Runoff     Runoff     Runoff      Runoff   Runoff   Coeff
  Subcatchment                 mm         mm         mm         mm         mm         mm         mm    10^6 ltr      LPS
  ------------------------------------------------------------------------------------------------------------------------------
  sub0                      66.88       0.00       0.00       1.01      60.95       3.68      64.63        0.05    37.27   0.966
  sub1                      66.88       0.00       0.00       1.54      52.24       5.06      57.30        0.38   241.06   0.857
  sub10                     66.88       0.00       0.00       0.97      48.96       3.37      52.33        0.58   375.51   0.782
  sub11                     66.88       0.00       0.00       0.89      45.50       3.15      48.65        0.57   384.63   0.727
  sub12                     66.88       0.00       0.00       1.56      46.25       5.50      51.75        0.45   321.71   0.774
  sub14                     66.88       0.00       0.00       0.97      43.09       3.38      46.47        0.44   298.05   0.695
  sub15                     66.88       0.00       0.00       4.46      38.74      12.49      51.23        0.88   551.96   0.766
  sub16                     66.88       0.00       0.00       4.72      37.78      14.28      52.06        0.55   368.22   0.778
  sub17                     66.88       0.00       0.00       5.06      41.70      14.97      56.68        0.49   321.72   0.847
  sub2                      66.88       0.00       0.00       7.09      38.19      15.83      54.01        0.50   268.68   0.808
  sub22                     66.88       0.00       0.00       7.94      36.16      19.91      56.07        3.54  2093.15   0.838
  sub23                     66.88       0.00       0.00       5.95      37.24      16.37      53.61        2.56  1613.50   0.802
  sub3                      66.88       0.00       0.00       7.60      37.82      15.11      52.93        1.19   584.86   0.791
  sub4                      66.88       0.00       0.00       1.69      51.45       4.82      56.27        1.17   614.72   0.841
  sub5                      66.88       0.00       0.00       0.87      50.54       3.02      53.55        0.61   388.03   0.801
  sub60                     66.88       0.00       0.00       1.39      44.50       4.80      49.30        0.65   444.58   0.737
  sub61                     66.88       0.00       0.00       2.14      44.46       7.15      51.61        0.95   651.10   0.772
  sub62                     66.88       0.00       0.00       0.95      47.40       3.26      50.66        1.39   898.53   0.757
  sub63                     66.88       0.00       0.00       3.96      38.08      11.92      50.00        1.14   754.93   0.748
  sub64                     66.88       0.00       0.00       1.89      43.36       5.92      49.28        1.18   741.74   0.737
  sub65                     66.88       0.00       0.00       1.74      46.80       5.41      52.20        1.44   869.22   0.781
  sub66                     66.88       0.00       0.00       4.67      36.82      10.71      47.54        2.22  1172.47   0.711
  sub67                     66.88       0.00       0.00       0.94      48.59       3.38      51.97        0.97   680.13   0.777
  sub68                     66.88       0.00       0.00       1.64      42.91       5.49      48.40        1.33   892.67   0.724
  sub69                     66.88       0.00       0.00       1.52      44.97       6.43      51.40        1.90  1122.77   0.768
  sub7                      66.88       0.00       0.00       1.03      46.18       3.64      49.82        0.17   115.68   0.745
  sub70                     66.88       0.00       0.00       5.18      36.03      13.43      49.46        1.43   680.23   0.740
  sub71                     66.88       0.00       0.00       0.87      43.06       2.95      46.01        1.20   746.40   0.688
  sub72                     66.88       0.00       0.00       0.84      46.51       2.74      49.25        0.68   388.35   0.736
  sub8                      66.88       0.00       0.00       1.01      44.88       3.53      48.41        0.31   209.22   0.724
  sub9                      66.88       0.00       0.00       0.98      43.51       3.42      46.93        0.23   152.49   0.702
  

  ***********************
  LID Performance Summary
  ***********************

  --------------------------------------------------------------------------------------------------------------------
                                         Total      Evap     Infil   Surface    Drain    Initial     Final  Continuity
                                        Inflow      Loss      Loss   Outflow   Outflow   Storage   Storage       Error
  Subcatchment      LID Control             mm        mm        mm        mm        mm        mm        mm           %
  --------------------------------------------------------------------------------------------------------------------
  sub1              GreenRoof            66.88      0.00      0.00      0.00      0.00      7.05     73.96       -0.03
  sub10             GreenRoof            66.88      0.00      0.00      0.00      0.00      7.05     73.96       -0.03
  sub11             GreenRoof            66.88      0.00      0.00      0.00      0.00      7.05     73.96       -0.03
  sub12             GreenRoof            66.88      0.00      0.00      0.00      0.00      7.05     73.96       -0.03
  sub14             GreenRoof            66.88      0.00      0.00      0.00      0.00      7.05     73.96       -0.03
  sub15             GreenRoof            66.88      0.00      0.00      0.00      0.00      7.05     73.96       -0.03
  sub16             GreenRoof            66.88      0.00      0.00      0.00      0.00      7.05     73.96       -0.03
  sub17             GreenRoof            66.88      0.00      0.00      0.00      0.00      7.05     73.96       -0.03
  sub2              GreenRoof            66.88      0.00      0.00      0.00      0.00      7.05     73.96       -0.03
  sub22             GreenRoof            66.88      0.00      0.00      0.00      0.00      7.05     73.96       -0.03
  sub23             GreenRoof            66.88      0.00      0.00      0.00      0.00      7.05     73.96       -0.03
  sub3              GreenRoof            66.88      0.00      0.00      0.00      0.00      7.05     73.96       -0.03
  sub4              GreenRoof            66.88      0.00      0.00      0.00      0.00      7.05     73.96       -0.03
  sub5              GreenRoof            66.88      0.00      0.00      0.00      0.00      7.05     73.96       -0.03
  sub60             GreenRoof            66.88      0.00      0.00      0.00      0.00      7.05     73.96       -0.03
  sub61             GreenRoof            66.88      0.00      0.00      0.00      0.00      7.05     73.96       -0.03
  sub62             GreenRoof            66.88      0.00      0.00      0.00      0.00      7.05     73.96       -0.03
  sub63             GreenRoof            66.88      0.00      0.00      0.00      0.00      7.05     73.96       -0.03
  sub64             GreenRoof            66.88      0.00      0.00      0.00      0.00      7.05     73.96       -0.03
  sub65             GreenRoof            66.88      0.00      0.00      0.00      0.00      7.05     73.96       -0.03
  sub66             GreenRoof            66.88      0.00      0.00      0.00      0.00      7.05     73.96       -0.03
  sub67             GreenRoof            66.88      0.00      0.00      0.00      0.00      7.05     73.96       -0.03
  sub68             GreenRoof            66.88      0.00      0.00      0.00      0.00      7.05     73.96       -0.03
  sub69             GreenRoof            66.88      0.00      0.00      0.00      0.00      7.05     73.96       -0.03
  sub7              GreenRoof            66.88      0.00      0.00      0.00      0.00      7.05     73.96       -0.03
  sub70             GreenRoof            66.88      0.00      0.00      0.00      0.00      7.05     73.96       -0.03
  sub71             GreenRoof            66.88      0.00      0.00      0.00      0.00      7.05     73.96       -0.03
  sub72             GreenRoof            66.88      0.00      0.00      0.00      0.00      7.05     73.96       -0.03
  sub8              GreenRoof            66.88      0.00      0.00      0.00      0.00      7.05     73.96       -0.03
  sub9              GreenRoof            66.88      0.00      0.00      0.00      0.00      7.05     73.96       -0.03
  
  ******************
  Node Depth Summary
  ******************
  
  ---------------------------------------------------------------------------------
                                 Average  Maximum  Maximum  Time of Max    Reported
                                   Depth    Depth      HGL   Occurrence   Max Depth
  Node                 Type       Meters   Meters   Meters  days hr:min      Meters
  ---------------------------------------------------------------------------------
  HS02004478           JUNCTION     0.25     1.59    10.82     0  02:24        1.58
  HS02004479           JUNCTION     0.33     1.71    10.91     0  02:25        1.71
  HS02004480           JUNCTION     0.30     1.67    10.91     0  02:17        1.63
  HS02004770           JUNCTION     0.29     1.42    11.25     0  02:13        1.42
  HS02004777           JUNCTION     0.32     1.48    11.28     0  02:13        1.46
  HS02004785           JUNCTION     0.21     1.47    11.37     0  02:13        1.35
  HS02004788           JUNCTION     0.17     1.42    11.32     0  02:13        1.42
  HS02004792           JUNCTION     0.24     1.60    11.12     0  02:16        1.60
  HS02004799           JUNCTION     0.36     1.76    10.97     0  02:17        1.76
  HS02004802           JUNCTION     0.35     1.80    10.93     0  02:25        1.80
  HS02004807           JUNCTION     0.32     1.92    11.09     0  02:23        1.92
  HS02004817           JUNCTION     0.62     2.39    11.24     0  02:25        2.38
  HS02004824           JUNCTION     0.18     2.01    11.41     0  02:25        2.01
  HS02004830           JUNCTION     0.18     2.03    11.50     0  02:25        2.03
  HS02004837           JUNCTION     0.15     2.01    11.59     0  02:25        2.01
  HS02004842           JUNCTION     0.44     2.22    11.49     0  02:17        2.22
  HS02004848           JUNCTION     0.13     2.07    11.67     0  02:25        2.07
  HS02004852           JUNCTION     0.14     2.10    11.61     0  02:25        2.10
  HS02004856           JUNCTION     0.20     2.07    11.50     0  02:17        2.07
  HS02004862           JUNCTION     0.15     2.00    11.38     0  02:25        2.00
  HS02004870           JUNCTION     0.15     2.10    11.39     0  02:25        2.10
  HS02004876           JUNCTION     0.20     2.17    11.20     0  02:25        2.17
  HS02004881           JUNCTION     0.13     2.15    11.18     0  02:16        1.87
  HS02004901           JUNCTION     0.30     1.42    11.24     0  02:13        1.42
  WS02001211           JUNCTION     0.63     0.81     5.65     0  02:28        0.81
  WS02001212           JUNCTION     0.38     0.58     5.64     0  02:27        0.58
  WS02001213           JUNCTION     0.59     0.87     5.63     0  02:27        0.87
  WS02003059           JUNCTION     0.66     0.94     5.63     0  02:26        0.94
  WS02003060           JUNCTION     0.38     0.69     5.62     0  02:26        0.69
  WS02003066           JUNCTION     0.23     0.46     6.01     0  02:25        0.46
  WS02003067           JUNCTION     0.54     0.89     6.21     0  02:24        0.89
  WS02003069           JUNCTION     0.43     0.78     5.37     0  02:26        0.78
  WS02003072           JUNCTION     0.49     0.82     5.19     0  02:27        0.82
  WS02003073           JUNCTION     0.29     0.52     4.58     0  02:27        0.52
  WS02004138           JUNCTION     0.13     0.14     7.39     0  00:29        0.14
  WS02004139           JUNCTION     0.57     0.75     5.66     0  02:28        0.75
  WS02004401           JUNCTION     0.77     1.93     7.93     0  02:40        1.91
  WS02004402           JUNCTION     0.78     1.90     7.86     0  02:40        1.85
  WS02004403           JUNCTION     0.79     1.84     7.77     0  02:40        1.80
  WS02004404           JUNCTION     0.85     1.85     7.70     0  02:40        1.75
  WS02004405           JUNCTION     0.84     1.78     7.63     0  02:40        1.77
  WS02004406           JUNCTION     0.83     1.61     7.44     0  02:25        1.58
  WS02004407           JUNCTION     0.27     0.95     7.27     0  02:25        0.95
  WS02004409           JUNCTION     0.53     1.41     7.18     0  02:25        1.41
  WS02004410           JUNCTION     0.54     1.31     7.03     0  02:24        1.30
  WS02004411           JUNCTION     0.54     1.22     6.90     0  02:25        1.21
  WS02004412           JUNCTION     0.54     1.11     6.75     0  02:25        1.11
  WS02004413           JUNCTION     0.68     1.15     6.62     0  02:25        1.15
  WS02006109           JUNCTION     0.99     2.64     9.26     0  02:14        2.64
  WS02006110           JUNCTION     0.92     2.49     9.07     0  02:40        2.44
  WS02006111           JUNCTION     0.43     1.90     8.61     0  02:25        1.90
  WS02006112           JUNCTION     0.98     2.53     8.41     0  02:25        2.53
  WS02006113           JUNCTION     0.51     1.97     8.86     0  02:40        1.91
  WS02006115           JUNCTION     0.69     2.06     8.20     0  02:25        2.06
  WS02006116           JUNCTION     0.76     2.08     8.12     0  02:25        2.08
  WS02006228           JUNCTION     1.04     3.03     9.68     0  02:29        3.03
  WS02006229           JUNCTION     1.05     3.23     9.92     0  02:25        3.22
  WS02006230           JUNCTION     0.97     2.65     9.39     0  02:09        2.65
  WS02006231           JUNCTION     0.69     2.23     9.35     0  02:38        2.23
  WS02006232           JUNCTION     0.77     2.18     9.22     0  02:08        2.18
  WS02006234           JUNCTION     0.65     1.96     9.12     0  02:08        1.96
  WS02006235           JUNCTION     0.66     2.00     9.16     0  02:25        2.00
  WS02006238           JUNCTION     0.68     2.15     9.29     0  03:00        2.15
  WS02006239           JUNCTION     0.61     2.03     9.24     0  03:00        2.03
  WS02006240           JUNCTION     0.57     2.00     9.29     0  03:00        2.00
  WS02006242           JUNCTION     0.60     1.55     8.82     0  02:05        1.55
  WS02006243           JUNCTION     0.49     1.48     8.90     0  01:51        1.48
  WS02006245           JUNCTION     0.47     1.53     9.01     0  01:51        1.52
  WS02006247           JUNCTION     0.48     1.41     8.91     0  03:00        1.41
  WS02006248           JUNCTION     0.42     1.10     8.69     0  01:51        1.10
  WS02006249           JUNCTION     0.44     1.09     8.69     0  01:51        1.09
  WS02006251           JUNCTION     0.54     2.21     9.88     0  02:16        2.14
  WS02006252           JUNCTION     0.36     1.50     9.74     0  00:00        1.50
  WS02006253           JUNCTION     0.62     3.21    10.85     0  02:16        3.08
  WS02006256           JUNCTION     0.89     2.35     9.28     0  00:00        2.35
  WS02006280           JUNCTION     0.32     1.75    10.02     0  02:23        1.73
  WS02006284           JUNCTION     0.58     1.95    10.35     0  02:25        1.94
  WS02006287           JUNCTION     0.32     1.74    10.70     0  02:25        1.73
  WSF200               JUNCTION     0.22     0.52     5.76     0  02:25        0.52
  YS02001580           JUNCTION     0.08     1.05     9.59     0  02:13        0.77
  YS02001583           JUNCTION     0.11     1.00     9.49     0  02:13        0.84
  YS02001586           JUNCTION     0.19     1.13     9.30     0  02:13        1.13
  YS02001590           JUNCTION     0.29     1.40     9.26     0  02:13        1.40
  YS02001593           JUNCTION     0.22     1.34     9.20     0  02:13        1.29
  YS02001596           JUNCTION     0.30     1.74     9.16     0  02:40        1.74
  YS02001600           JUNCTION     0.37     1.87     9.00     0  02:13        1.87
  YS02001601           JUNCTION     0.57     2.06     8.90     0  02:12        2.06
  YS02001602           JUNCTION     0.48     1.87     8.77     0  02:16        1.87
  YS02001605           JUNCTION     0.44     1.78     8.68     0  02:25        1.78
  YS02001607           JUNCTION     0.43     1.66     8.50     0  02:32        1.66
  YS02001610           JUNCTION     0.47     1.68     8.48     0  02:18        1.68
  YS02001613           JUNCTION     0.43     1.67     8.51     0  02:29        1.66
  YS02001616           JUNCTION     0.36     1.61     8.52     0  02:22        1.61
  YS02001619           JUNCTION     0.34     1.61     8.54     0  02:21        1.61
  YS02001622           JUNCTION     0.33     1.58     8.48     0  02:25        1.58
  YS02001625           JUNCTION     0.58     1.78     8.38     0  02:18        1.78
  YS02001629           JUNCTION     0.45     1.85     8.40     0  02:20        1.85
  YS02001633           JUNCTION     0.53     2.08     8.53     0  02:25        2.08
  YS02001641           JUNCTION     0.50     1.98     8.42     0  02:22        1.98
  YS02001644           JUNCTION     0.50     1.92     8.35     0  02:22        1.92
  YS02001647           JUNCTION     0.27     1.76     8.37     0  02:25        1.76
  YS02001649           JUNCTION     0.30     1.93     8.32     0  02:25        1.93
  YS02001652           JUNCTION     0.18     1.78     8.38     0  02:25        1.78
  YS02001655           JUNCTION     0.13     1.59     8.44     0  02:22        1.50
  YS02001658           JUNCTION     0.10     1.48     8.62     0  02:22        1.21
  YS02001661           JUNCTION     0.14     0.98     8.39     0  02:25        0.98
  YS02001664           JUNCTION     0.06     0.36     8.28     0  02:24        0.35
  YS02001745           JUNCTION     0.06     0.71     8.23     0  02:23        0.68
  YS02001748           JUNCTION     0.08     1.46     8.53     0  02:23        1.14
  YS02001751           JUNCTION     0.10     1.57     8.45     0  02:21        1.29
  YS02001754           JUNCTION     0.14     1.68     8.29     0  02:23        1.59
  YS02001757           JUNCTION     0.30     1.97     8.24     0  02:25        1.97
  YS02001759           JUNCTION     0.24     2.05     8.41     0  02:25        2.05
  YS02001762           JUNCTION     0.23     2.04     8.44     0  02:25        2.04
  YS02001765           JUNCTION     0.21     2.05     8.50     0  02:21        2.05
  YS02001767           JUNCTION     0.21     2.03     8.52     0  02:21        2.03
  YS02001770           JUNCTION     0.23     1.95     8.44     0  02:21        1.95
  YS02001774           JUNCTION     0.29     2.05     8.47     0  02:21        2.05
  YS02001779           JUNCTION     0.13     1.68     8.37     0  02:20        1.68
  YS02001783           JUNCTION     0.24     1.28     7.42     0  02:19        1.23
  YS02001784           JUNCTION     0.26     1.14     7.21     0  02:19        1.11
  YS02001786           JUNCTION     0.22     0.89     6.92     0  02:19        0.87
  YS02001788           JUNCTION     0.16     0.62     6.60     0  02:23        0.62
  YS02001790           JUNCTION     0.19     0.72     6.37     0  02:22        0.72
  YS02001791           JUNCTION     0.12     0.44     5.91     0  02:27        0.43
  YS02001793           JUNCTION     0.06     0.26     5.09     0  02:30        0.25
  YS02001882           JUNCTION     0.30     1.69     8.40     0  02:25        1.69
  YS02001884           JUNCTION     0.39     1.75     8.37     0  02:19        1.75
  YS02001887           JUNCTION     0.46     1.90     8.43     0  02:25        1.90
  YS02001890           JUNCTION     0.49     1.81     8.32     0  02:19        1.81
  YS02001895           JUNCTION     0.27     1.57     8.31     0  02:25        1.56
  YS02001898           JUNCTION     0.28     1.57     8.30     0  02:25        1.56
  YS02001901           JUNCTION     0.39     1.68     8.29     0  02:22        1.68
  YS02001904           JUNCTION     0.37     1.64     8.27     0  02:19        1.64
  YS02001907           JUNCTION     0.68     1.96     8.25     0  02:19        1.96
  YS02001910           JUNCTION     0.48     1.99     8.49     0  02:20        1.97
  YS02001915           JUNCTION     0.30     1.94     8.66     0  02:20        1.91
  YS02001918           JUNCTION     0.15     1.81     8.88     0  02:20        1.50
  YS02001920           JUNCTION     0.23     2.05     9.06     0  02:20        1.49
  YS02001923           JUNCTION     0.11     1.92     9.18     0  02:20        1.25
  YS02001926           JUNCTION     0.15     1.82     9.26     0  02:20        1.07
  YS02001929           JUNCTION     0.08     1.78     9.47     0  02:20        0.82
  YS02006553           JUNCTION     0.68     2.03     8.31     0  02:25        2.03
  YS02006556           JUNCTION     0.66     1.98     8.29     0  02:25        1.98
  YS02006558           JUNCTION     0.70     2.11     8.38     0  02:25        2.11
  YS02006561           JUNCTION     0.15     0.96     7.62     0  02:19        0.89
  YS02163301           JUNCTION     0.47     1.95     8.46     0  02:22        1.95
  YS02163601           JUNCTION     0.56     2.08     8.48     0  02:22        2.08
  YS02164001           JUNCTION     0.49     2.00     8.46     0  02:22        2.00
  YSB1154              JUNCTION     0.46     2.10    11.16     0  02:25        2.10
  YSB1171              JUNCTION     0.61     1.95    10.85     0  02:17        1.95
  YSB1174              JUNCTION     0.42     1.86    10.97     0  02:25        1.86
  YSB6556              JUNCTION     0.36     1.80    10.97     0  02:25        1.80
  CC-1                 OUTFALL      0.00     0.00     0.00     0  00:00        0.00
  CC-2                 OUTFALL      0.00     0.00     0.00     0  00:00        0.00
  JK-1                 OUTFALL      0.00     0.00     0.00     0  00:00        0.00
  JK-2                 OUTFALL      0.00     0.00     0.00     0  00:00        0.00
  WSC                  OUTFALL      0.29     0.52     1.19     0  02:28        0.52
  CC-storage           STORAGE      0.61     1.22     6.72     0  02:47        1.22
  JK-storage           STORAGE      1.45     4.09     4.89     0  02:30        4.09
  XR-storage           STORAGE      7.82     9.26     7.26     0  08:00        9.26
  
  
  *******************
  Node Inflow Summary
  *******************
  
  -------------------------------------------------------------------------------------------------
                                  Maximum  Maximum                  Lateral       Total        Flow
                                  Lateral    Total  Time of Max      Inflow      Inflow     Balance
                                   Inflow   Inflow   Occurrence      Volume      Volume       Error
  Node                 Type           LPS      LPS  days hr:min    10^6 ltr    10^6 ltr     Percent
  -------------------------------------------------------------------------------------------------
  HS02004478           JUNCTION      0.00  2309.66     0  02:25           0        8.36      -0.001
  HS02004479           JUNCTION      0.00   383.68     0  02:18           0       0.783       0.136
  HS02004480           JUNCTION      0.00  2058.10     0  02:16           0        6.32       0.045
  HS02004770           JUNCTION   1613.50  1613.50     0  02:25        2.56        2.78       0.126
  HS02004777           JUNCTION      0.03   697.30     0  02:13    0.000864        1.86       0.291
  HS02004785           JUNCTION      0.15   703.22     0  02:13     0.00432        1.86       0.051
  HS02004788           JUNCTION    553.63   841.11     0  02:14       0.929        2.78       0.007
  HS02004792           JUNCTION   2093.43  2902.72     0  02:25        3.55        6.33       0.006
  HS02004799           JUNCTION    298.05  1743.27     0  02:14       0.442        5.66       0.051
  HS02004802           JUNCTION      0.00  1232.19     0  02:26           0        2.14       0.188
  HS02004807           JUNCTION    384.63  1389.12     0  02:25       0.565         2.2       0.190
  HS02004817           JUNCTION      0.60  1005.49     0  02:25      0.0173        1.69       0.999
  HS02004824           JUNCTION    614.77  1003.33     0  02:25        1.18        1.86       0.036
  HS02004830           JUNCTION      0.15   567.44     0  02:14     0.00432       0.876       0.126
  HS02004837           JUNCTION    381.86   732.48     0  02:17        0.76        1.17       0.066
  HS02004842           JUNCTION      0.00   737.31     0  02:17           0       0.713       1.822
  HS02004848           JUNCTION    584.86  1005.30     0  02:17        1.19        1.73      -0.014
  HS02004852           JUNCTION      0.00   999.90     0  02:17           0        1.57       0.008
  HS02004856           JUNCTION    152.49  1045.47     0  02:17       0.226         1.8       0.066
  HS02004862           JUNCTION    268.88  1115.40     0  02:17       0.509         2.3       0.005
  HS02004870           JUNCTION    209.22  1219.03     0  02:25       0.309        2.61      -0.005
  HS02004876           JUNCTION    241.06  1463.05     0  02:25       0.381        2.99       0.019
  HS02004881           JUNCTION    115.68  1581.14     0  02:25       0.168        3.16       0.003
  HS02004901           JUNCTION    368.22   632.99     0  02:25       0.545       0.863       0.219
  WS02001211           JUNCTION      7.35   204.64     0  02:58       0.212        5.44       0.612
  WS02001212           JUNCTION      0.00   211.78     0  02:58           0        5.41       0.290
  WS02001213           JUNCTION      0.00   217.12     0  02:57           0        5.39       0.332
  WS02003059           JUNCTION      0.00   222.33     0  02:57           0        5.38       0.594
  WS02003060           JUNCTION     16.53  1516.45     0  02:26       0.476        13.3       0.110
  WS02003066           JUNCTION      0.00  1316.26     0  02:25           0        7.47       0.019
  WS02003067           JUNCTION      0.00  1315.58     0  02:25           0        7.47       0.058
  WS02003069           JUNCTION      0.32  1516.45     0  02:26     0.00922        13.3       0.115
  WS02003072           JUNCTION      0.00  1516.05     0  02:27           0        13.3       0.157
  WS02003073           JUNCTION      1.82  1518.10     0  02:27      0.0524        13.3       0.163
  WS02004138           JUNCTION      0.00   380.00     0  00:00           0        5.25       0.054
  WS02004139           JUNCTION      0.32   191.14     0  00:29     0.00924        5.26       0.508
  WS02004401           JUNCTION      0.00  1322.85     0  02:25           0        7.58       0.137
  WS02004402           JUNCTION      0.00  1323.78     0  02:25           0        7.57       0.137
  WS02004403           JUNCTION      0.00  1323.35     0  02:25           0        7.56       0.137
  WS02004404           JUNCTION      0.16  1322.57     0  02:25     0.00467        7.55       0.111
  WS02004405           JUNCTION      0.04  1320.78     0  02:25      0.0011        7.54       0.168
  WS02004406           JUNCTION      0.00  1322.93     0  02:25           0        7.53       0.279
  WS02004407           JUNCTION      0.00  1323.50     0  02:25           0        7.51       0.019
  WS02004409           JUNCTION      0.00  1315.37     0  02:25           0        7.51       0.040
  WS02004410           JUNCTION      0.00  1315.40     0  02:25           0        7.51       0.063
  WS02004411           JUNCTION      0.00  1315.74     0  02:25           0         7.5       0.080
  WS02004412           JUNCTION      0.00  1315.41     0  02:25           0         7.5       0.105
  WS02004413           JUNCTION      0.00  1315.43     0  02:25           0        7.49       0.183
  WS02006109           JUNCTION      1.23  1290.10     0  02:25      0.0354        7.37       0.139
  WS02006110           JUNCTION      0.00  1143.49     0  02:40           0        7.13       0.107
  WS02006111           JUNCTION      0.00  1121.54     0  02:38           0        7.12       0.013
  WS02006112           JUNCTION    321.72  1315.07     0  02:25       0.486        7.61       0.246
  WS02006113           JUNCTION      0.00  1132.89     0  02:40           0        7.13       0.028
  WS02006115           JUNCTION      0.00  1315.77     0  02:25           0        7.59       0.092
  WS02006116           JUNCTION      0.00  1320.35     0  02:25           0        7.58       0.071
  WS02006228           JUNCTION      0.00  1288.37     0  02:25           0        7.34       0.068
  WS02006229           JUNCTION      0.00  2305.22     0  02:24           0        9.54       0.084
  WS02006230           JUNCTION     10.28  1027.91     0  02:25       0.296        3.45       0.230
  WS02006231           JUNCTION      0.00   454.03     0  02:40           0         2.3      -0.138
  WS02006232           JUNCTION      0.00   453.49     0  02:38           0        2.29       0.195
  WS02006234           JUNCTION      0.00   453.23     0  02:22           0        2.29      -0.145
  WS02006235           JUNCTION      0.00   415.82     0  02:22           0        2.18       0.188
  WS02006238           JUNCTION      0.00   415.68     0  02:30           0        2.16      -0.113
  WS02006239           JUNCTION      0.00   415.12     0  02:24           0        2.16      -0.103
  WS02006240           JUNCTION      0.00   414.91     0  02:31           0        2.15      -0.007
  WS02006242           JUNCTION      0.00   415.28     0  02:30           0        2.15      -0.023
  WS02006243           JUNCTION      0.00   371.62     0  00:05           0        1.81       0.047
  WS02006245           JUNCTION      0.00   383.09     0  00:05           0        1.82       0.391
  WS02006247           JUNCTION      0.00   385.59     0  00:04           0        1.82      -0.001
  WS02006248           JUNCTION      0.00   390.96     0  00:04           0        2.05      -0.053
  WS02006249           JUNCTION      0.00  1360.58     0  02:25           0        4.79       0.138
  WS02006251           JUNCTION      0.08  1624.20     0  02:25     0.00222        4.89      -0.023
  WS02006252           JUNCTION      0.00   665.57     0  02:25           0        2.03      -0.602
  WS02006253           JUNCTION     37.27  1621.26     0  02:25      0.0523        3.24       0.024
  WS02006256           JUNCTION      0.00   300.00     0  00:00           0       0.205      -0.332
  WS02006280           JUNCTION      0.00  2304.00     0  02:24           0        8.33       0.004
  WS02006284           JUNCTION      0.10  2305.08     0  02:25     0.00275        8.33       0.004
  WS02006287           JUNCTION      0.00  2306.24     0  02:25           0        8.33       0.012
  WSF200               JUNCTION      0.00  1316.48     0  02:25           0        7.47       0.010
  YS02001580           JUNCTION      0.00    73.97     0  02:12           0      0.0041       2.935
  YS02001583           JUNCTION      0.00   122.41     0  02:12           0      0.0152      -4.430
  YS02001586           JUNCTION    680.23   680.23     0  02:26        1.43        1.44       0.074
  YS02001590           JUNCTION      0.00   318.35     0  02:25           0        1.19      -0.037
  YS02001593           JUNCTION      0.00   318.09     0  02:25           0        1.19       0.011
  YS02001596           JUNCTION      0.00   318.21     0  02:25           0        1.19      -0.004
  YS02001600           JUNCTION      0.00   318.03     0  02:38           0        1.19       0.015
  YS02001601           JUNCTION   1122.77  1440.35     0  02:25         1.9        3.09       0.028
  YS02001602           JUNCTION      0.00   501.07     0  02:44           0        2.11       0.018
  YS02001605           JUNCTION      0.00   501.52     0  02:44           0        2.03       0.024
  YS02001607           JUNCTION      0.00   501.83     0  02:44           0        2.03       0.096
  YS02001610           JUNCTION      0.00   613.06     0  02:26           0        2.14       0.113
  YS02001613           JUNCTION      0.00   503.12     0  02:44           0        1.82       0.092
  YS02001616           JUNCTION      0.00   504.12     0  02:44           0        1.82       0.026
  YS02001619           JUNCTION   1172.47  1172.47     0  02:26        2.22        3.93       0.005
  YS02001622           JUNCTION      0.00   944.92     0  02:18           0        3.82       0.002
  YS02001625           JUNCTION      0.00  1214.54     0  02:25           0         3.9       0.229
  YS02001629           JUNCTION      0.00   945.40     0  02:18           0        3.36       0.030
  YS02001633           JUNCTION    869.42  1395.44     0  02:18        1.44        4.71       0.074
  YS02001641           JUNCTION      0.00  1394.05     0  02:18           0        4.62       0.064
  YS02001644           JUNCTION    741.78  1777.03     0  02:18        1.18        5.79       0.058
  YS02001647           JUNCTION      0.00  1776.27     0  02:18           0        5.69       0.008
  YS02001649           JUNCTION      0.00  2050.96     0  02:17           0        6.83       0.005
  YS02001652           JUNCTION      0.00   770.89     0  02:25           0        1.14      -0.071
  YS02001655           JUNCTION      0.15   770.82     0  02:25     0.00443        1.14       0.041
  YS02001658           JUNCTION      0.00   771.89     0  02:25           0        1.13      -0.059
  YS02001661           JUNCTION      0.00   765.41     0  02:25           0        1.14       0.023
  YS02001664           JUNCTION    754.93   754.93     0  02:25        1.13        1.13      -0.005
  YS02001745           JUNCTION    444.58   444.58     0  02:25       0.648       0.648       0.161
  YS02001748           JUNCTION      0.04   524.23     0  02:23      0.0013       0.649      -0.287
  YS02001751           JUNCTION      0.01   462.03     0  02:24    0.000317       0.653       0.106
  YS02001754           JUNCTION      0.26   462.14     0  02:24     0.00749       0.661      -0.150
  YS02001757           JUNCTION      0.00  3492.21     0  02:24           0        9.83       0.068
  YS02001759           JUNCTION    651.14  1417.61     0  02:25       0.948        2.33      -0.007
  YS02001762           JUNCTION      0.00   800.90     0  02:27           0        1.39      -0.009
  YS02001765           JUNCTION      0.00   800.32     0  02:27           0        1.39       0.005
  YS02001767           JUNCTION      0.54   798.66     0  02:27      0.0154        1.39      -0.004
  YS02001770           JUNCTION    898.68   898.68     0  02:25        1.39        1.43      -0.014
  YS02001774           JUNCTION      0.00   212.14     0  02:19           0      0.0796       1.496
  YS02001779           JUNCTION      0.01   217.24     0  02:19    0.000144      0.0375      -0.935
  YS02001783           JUNCTION      0.00  1161.57     0  02:25           0        3.52       0.007
  YS02001784           JUNCTION      1.06  1162.07     0  02:25      0.0305        3.55       0.014
  YS02001786           JUNCTION      0.06  1163.02     0  02:25     0.00162        3.55       0.018
  YS02001788           JUNCTION      0.07  1163.43     0  02:25     0.00204        3.55       0.009
  YS02001790           JUNCTION      0.15  1173.61     0  02:23     0.00446        3.55       0.024
  YS02001791           JUNCTION      0.00  1279.73     0  02:22           0        3.55      -0.024
  YS02001793           JUNCTION      0.00  1245.81     0  02:27           0        3.55       0.006
  YS02001882           JUNCTION      0.00    32.81     0  02:17           0      0.0128       5.489
  YS02001884           JUNCTION      0.00    45.13     0  02:16           0      0.0486       5.338
  YS02001887           JUNCTION    680.58   684.93     0  02:25        0.98        1.01       0.447
  YS02001890           JUNCTION      0.00   691.72     0  02:25           0       0.972       0.531
  YS02001895           JUNCTION      0.00   521.76     0  02:25           0       0.934       0.168
  YS02001898           JUNCTION      0.00   518.34     0  02:25           0       0.932       0.027
  YS02001901           JUNCTION      0.00   517.52     0  02:27           0       0.935       0.361
  YS02001904           JUNCTION      0.00   517.58     0  02:27           0       0.938       0.299
  YS02001907           JUNCTION      0.00  1667.86     0  02:24           0         2.9       0.623
  YS02001910           JUNCTION      0.00  1157.62     0  02:25           0        1.96       0.364
  YS02001915           JUNCTION    746.42  1153.83     0  02:25         1.2        1.99       0.084
  YS02001918           JUNCTION      0.00   460.71     0  02:20           0       0.806       0.010
  YS02001920           JUNCTION      2.87   459.82     0  02:20      0.0827       0.793       0.097
  YS02001923           JUNCTION      0.04   423.51     0  02:20     0.00109       0.699      -0.019
  YS02001926           JUNCTION      0.05   420.23     0  02:20      0.0015       0.684       0.047
  YS02001929           JUNCTION    388.35   388.35     0  02:25       0.677       0.677      -0.099
  YS02006553           JUNCTION      0.00   796.79     0  02:35           0        2.21       0.529
  YS02006556           JUNCTION      0.00   796.81     0  02:35           0        2.21       0.370
  YS02006558           JUNCTION    893.55  1161.11     0  02:24        1.36        3.55       0.101
  YS02006561           JUNCTION      0.00  1160.64     0  02:24           0        3.52      -0.001
  YS02163301           JUNCTION      0.00   952.91     0  02:40           0        3.35       0.048
  YS02163601           JUNCTION      0.11  1395.16     0  02:18     0.00317        4.61       0.109
  YS02164001           JUNCTION      0.00  1395.71     0  02:18           0        4.61       0.058
  YSB1154              JUNCTION    388.03   388.03     0  02:25       0.607       0.607       0.255
  YSB1171              JUNCTION      0.00   927.31     0  02:25           0        1.13       0.593
  YSB1174              JUNCTION    321.71   321.71     0  02:25       0.452       0.453       0.301
  YSB6556              JUNCTION      0.00   390.35     0  02:25           0       0.608       0.246
  CC-1                 OUTFALL       0.00   683.00     0  00:00           0        4.37       0.000
  CC-2                 OUTFALL       0.00   683.00     0  00:00           0        4.37       0.000
  JK-1                 OUTFALL       0.00  1000.00     0  00:00           0        1.73       0.000
  JK-2                 OUTFALL       0.00  1000.00     0  00:00           0        1.73       0.000
  WSC                  OUTFALL       0.00  1518.41     0  02:28           0        13.3       0.000
  CC-storage           STORAGE       0.00  3493.70     0  02:24           0        12.1      -0.240
  JK-storage           STORAGE       0.00  1271.05     0  02:30           0        3.71      -0.433
  XR-storage           STORAGE     200.00   200.00     0  00:00        5.76        6.36       0.001
  
  
  **********************
  Node Surcharge Summary
  **********************
  
  Surcharging occurs when water rises above the top of the highest conduit.
  ---------------------------------------------------------------------
                                               Max. Height   Min. Depth
                                   Hours       Above Crown    Below Rim
  Node                 Type      Surcharged         Meters       Meters
  ---------------------------------------------------------------------
  HS02004478           JUNCTION        0.44          0.668        0.272
  HS02004479           JUNCTION        0.58          0.909        0.141
  HS02004480           JUNCTION        0.62          0.963        0.137
  HS02004770           JUNCTION        0.53          0.720        0.000
  HS02004777           JUNCTION        0.53          0.780        0.000
  HS02004785           JUNCTION        0.48          0.774        0.016
  HS02004788           JUNCTION        0.47          0.720        0.000
  HS02004792           JUNCTION        0.59          0.900        0.000
  HS02004799           JUNCTION        0.73          1.060        0.000
  HS02004802           JUNCTION        0.63          1.095        0.115
  HS02004807           JUNCTION        0.61          1.220        0.000
  HS02004817           JUNCTION        1.18          1.694        0.046
  HS02004824           JUNCTION        0.47          1.310        0.000
  HS02004830           JUNCTION        0.44          1.330        0.000
  HS02004837           JUNCTION        0.41          1.310        0.030
  HS02004842           JUNCTION        0.54          1.520        0.000
  HS02004848           JUNCTION        0.36          1.370        0.000
  HS02004852           JUNCTION        0.38          1.403        0.017
  HS02004856           JUNCTION        0.38          1.300        0.000
  HS02004862           JUNCTION        0.41          1.300        0.000
  HS02004870           JUNCTION        0.42          1.400        0.000
  HS02004876           JUNCTION        0.49          1.471        0.089
  HS02004881           JUNCTION        0.47          1.450        0.000
  HS02004901           JUNCTION        0.53          0.720        0.000
  WS02004401           JUNCTION        1.45          0.925        0.735
  WS02004402           JUNCTION        1.46          0.899        0.841
  WS02004403           JUNCTION        1.46          0.843        1.187
  WS02004404           JUNCTION        1.56          0.848        1.932
  WS02004405           JUNCTION        1.54          0.779        2.021
  WS02004406           JUNCTION        1.52          0.608        1.842
  WS02004409           JUNCTION        0.99          0.408        1.952
  WS02004410           JUNCTION        0.92          0.307        2.233
  WS02004411           JUNCTION        0.83          0.219        2.311
  WS02004412           JUNCTION        0.74          0.114        2.196
  WS02004413           JUNCTION        1.20          0.149        2.051
  WS02006109           JUNCTION        1.87          1.820        0.000
  WS02006110           JUNCTION        1.66          1.578        0.272
  WS02006111           JUNCTION        1.16          1.090        0.780
  WS02006112           JUNCTION        1.75          1.527        0.153
  WS02006113           JUNCTION        1.18          1.170        0.760
  WS02006115           JUNCTION        1.34          1.048        1.202
  WS02006116           JUNCTION        1.35          1.021        1.269
  WS02006228           JUNCTION        1.86          2.200        0.000
  WS02006229           JUNCTION        0.86          1.046        0.024
  WS02006230           JUNCTION        1.51          1.570        0.000
  WS02006231           JUNCTION        1.52          1.516        0.014
  WS02006232           JUNCTION        1.72          1.480        0.000
  WS02006234           JUNCTION        1.55          1.240        0.000
  WS02006235           JUNCTION        1.59          1.290        0.000
  WS02006238           JUNCTION        1.61          1.430        0.000
  WS02006239           JUNCTION        1.56          1.290        0.000
  WS02006240           JUNCTION        1.50          1.291        0.099
  WS02006242           JUNCTION        1.53          0.820        0.000
  WS02006243           JUNCTION        1.46          0.770        0.000
  WS02006245           JUNCTION        1.44          0.816        0.034
  WS02006247           JUNCTION        1.45          0.695        0.065
  WS02006248           JUNCTION        1.41          0.380        0.000
  WS02006249           JUNCTION        1.42          0.390        0.000
  WS02006251           JUNCTION        1.29          1.180        0.000
  WS02006252           JUNCTION        1.45          1.100        0.000
  WS02006253           JUNCTION        1.30          2.168        0.312
  WS02006256           JUNCTION        5.78          2.050        0.000
  WS02006280           JUNCTION        0.73          0.698        0.082
  WS02006284           JUNCTION        0.65          0.673        0.127
  WS02006287           JUNCTION        0.54          0.743        0.147
  YS02001580           JUNCTION        0.51          0.450        0.000
  YS02001583           JUNCTION        0.51          0.356        0.144
  YS02001586           JUNCTION        0.60          0.510        0.000
  YS02001590           JUNCTION        0.67          0.750        0.000
  YS02001593           JUNCTION        0.67          0.719        0.121
  YS02001596           JUNCTION        0.78          1.008        0.062
  YS02001600           JUNCTION        0.94          1.190        0.000
  YS02001601           JUNCTION        1.30          1.440        0.000
  YS02001602           JUNCTION        1.19          1.270        0.000
  YS02001605           JUNCTION        1.13          1.180        0.000
  YS02001607           JUNCTION        0.61          0.656        0.024
  YS02001610           JUNCTION        0.64          0.680        0.000
  YS02001613           JUNCTION        0.60          0.667        0.033
  YS02001616           JUNCTION        0.56          0.610        0.000
  YS02001619           JUNCTION        0.55          0.610        0.000
  YS02001622           JUNCTION        0.54          0.580        0.040
  YS02001625           JUNCTION        0.73          0.780        0.000
  YS02001629           JUNCTION        0.48          0.470        0.000
  YS02001633           JUNCTION        0.73          1.060        0.000
  YS02001641           JUNCTION        0.62          0.980        0.120
  YS02001644           JUNCTION        0.57          0.920        0.000
  YS02001647           JUNCTION        0.35          0.761        0.139
  YS02001649           JUNCTION        0.40          0.928        0.122
  YS02001652           JUNCTION        0.27          0.755        0.375
  YS02001655           JUNCTION        0.19          0.593        0.607
  YS02001658           JUNCTION        0.11          0.477        0.823
  YS02001748           JUNCTION        0.03          0.377        0.813
  YS02001751           JUNCTION        0.12          0.572        0.628
  YS02001754           JUNCTION        0.19          0.634        0.516
  YS02001757           JUNCTION        0.40          0.975        0.235
  YS02001759           JUNCTION        0.34          1.046        0.164
  YS02001762           JUNCTION        0.32          1.038        0.112
  YS02001765           JUNCTION        0.30          1.052        0.048
  YS02001767           JUNCTION        0.28          1.030        0.000
  YS02001770           JUNCTION        0.27          0.920        0.000
  YS02001774           JUNCTION        0.32          1.050        0.000
  YS02001779           JUNCTION        0.21          0.680        0.000
  YS02001783           JUNCTION        0.42          0.481        1.119
  YS02001784           JUNCTION        0.40          0.337        1.153
  YS02001786           JUNCTION        0.30          0.090        1.340
  YS02001882           JUNCTION        0.37          0.686        0.144
  YS02001884           JUNCTION        0.38          0.694        0.176
  YS02001887           JUNCTION        0.41          0.846        0.104
  YS02001890           JUNCTION        0.43          0.760        0.000
  YS02001895           JUNCTION        0.36          0.566        0.184
  YS02001898           JUNCTION        0.35          0.539        0.201
  YS02001901           JUNCTION        0.40          0.683        0.187
  YS02001904           JUNCTION        0.39          0.645        0.205
  YS02001907           JUNCTION        0.66          0.950        0.000
  YS02001910           JUNCTION        0.45          0.987        0.113
  YS02001915           JUNCTION        0.37          0.940        0.060
  YS02001918           JUNCTION        0.29          0.810        0.000
  YS02001920           JUNCTION        0.30          1.047        0.093
  YS02001923           JUNCTION        0.02          0.712        0.108
  YS02001926           JUNCTION        0.03          0.816        0.084
  YS02001929           JUNCTION        0.01          0.780        0.000
  YS02006553           JUNCTION        0.68          1.028        0.162
  YS02006556           JUNCTION        0.55          0.936        0.414
  YS02006558           JUNCTION        0.53          1.011        0.389
  YS02006561           JUNCTION        0.25          0.156        0.994
  YS02163301           JUNCTION        0.71          0.948        0.082
  YS02163601           JUNCTION        0.77          1.080        0.000
  YS02164001           JUNCTION        0.64          0.999        0.101
  YSB1154              JUNCTION        0.85          1.400        0.000
  YSB1171              JUNCTION        0.85          1.100        0.000
  YSB1174              JUNCTION        0.77          1.163        0.087
  YSB6556              JUNCTION        0.69          1.100        0.000
  
  
  *********************
  Node Flooding Summary
  *********************
  
  Flooding refers to all water that overflows a node, whether it ponds or not.
  --------------------------------------------------------------------------
                                                             Total   Maximum
                                 Maximum   Time of Max       Flood    Ponded
                        Hours       Rate    Occurrence      Volume     Depth
  Node                 Flooded       LPS   days hr:min    10^6 ltr    Meters
  --------------------------------------------------------------------------
  HS02004770              0.37   1093.87      0  02:25       0.605     0.000
  HS02004777              0.01     34.47      0  02:13       0.000     0.000
  HS02004788              0.01    103.20      0  02:13       0.000     0.000
  HS02004792              0.34   1759.88      0  02:25       1.113     0.000
  HS02004799              0.14    161.70      0  02:24       0.042     0.000
  HS02004807              0.06    161.20      0  02:25       0.016     0.000
  HS02004824              0.01      0.60      0  02:25       0.000     0.000
  HS02004830              0.01      0.96      0  02:25       0.000     0.000
  HS02004842              0.01     39.61      0  02:17       0.000     0.000
  HS02004848              0.01      0.82      0  02:25       0.000     0.000
  HS02004856              0.01    114.45      0  02:17       0.000     0.000
  HS02004862              0.01      0.83      0  02:25       0.000     0.000
  HS02004870              0.01      0.54      0  02:25       0.000     0.000
  HS02004881              0.01    217.32      0  02:16       0.000     0.000
  HS02004901              0.42    632.97      0  02:25       0.636     0.000
  WS02006109              0.39    298.31      0  02:25       0.228     0.000
  WS02006228              0.01      0.50      0  02:29       0.000     0.000
  WS02006230              0.66    574.98      0  02:25       0.878     0.000
  WS02006232              0.17      3.75      0  02:40       0.000     0.000
  WS02006234              0.70    128.57      0  02:34       0.173     0.000
  WS02006235              0.01      2.26      0  03:00       0.000     0.000
  WS02006238              0.01      1.22      0  03:00       0.000     0.000
  WS02006239              0.01      0.63      0  03:00       0.000     0.000
  WS02006242              0.79    137.47      0  02:30       0.334     0.000
  WS02006243              0.01     54.25      0  01:51       0.000     0.000
  WS02006248              1.10    339.47      0  02:08       1.119     0.000
  WS02006249              1.33   1299.70      0  02:25       3.618     0.000
  WS02006251              0.01     44.46      0  02:16       0.000     0.000
  WS02006252              0.41    665.38      0  02:25       0.388     0.000
  WS02006256              0.19    293.19      0  00:00       0.134     0.000
  YS02001580              0.01     41.49      0  02:13       0.000     0.000
  YS02001586              0.39    362.56      0  02:26       0.242     0.000
  YS02001590              0.01      8.46      0  02:13       0.000     0.000
  YS02001600              0.01      2.53      0  02:13       0.000     0.000
  YS02001601              0.53   1042.06      0  02:25       0.979     0.000
  YS02001602              0.38     61.98      0  02:33       0.075     0.000
  YS02001605              0.01      0.15      0  02:25       0.000     0.000
  YS02001610              0.33    612.84      0  02:26       0.421     0.000
  YS02001616              0.01      0.99      0  02:25       0.000     0.000
  YS02001619              0.01      0.72      0  02:22       0.000     0.000
  YS02001625              0.28   1214.19      0  02:26       0.623     0.000
  YS02001629              0.08    113.27      0  02:24       0.017     0.000
  YS02001633              0.01      0.68      0  02:25       0.000     0.000
  YS02001644              0.09    436.58      0  02:25       0.089     0.000
  YS02001767              0.01      3.85      0  02:21       0.000     0.000
  YS02001770              0.01     13.59      0  02:21       0.000     0.000
  YS02001774              0.01      6.01      0  02:21       0.000     0.000
  YS02001779              0.07    159.08      0  02:25       0.021     0.000
  YS02001890              0.12    168.44      0  02:25       0.033     0.000
  YS02001907              0.24   1414.04      0  02:25       0.680     0.000
  YS02001918              0.01     71.87      0  02:20       0.000     0.000
  YS02001929              0.01    184.26      0  02:20       0.000     0.000
  YS02163601              0.01      1.12      0  02:22       0.000     0.000
  YSB1154                 0.01      0.02      0  02:25       0.000     0.000
  YSB1171                 0.25    926.95      0  02:25       0.415     0.000
  YSB6556                 0.01      0.34      0  02:25       0.000     0.000
  
  
  **********************
  Storage Volume Summary
  **********************
  
  --------------------------------------------------------------------------------------------------
                         Average     Avg  Evap Exfil       Maximum     Max    Time of Max    Maximum
                          Volume    Pcnt  Pcnt  Pcnt        Volume    Pcnt     Occurrence    Outflow
  Storage Unit           1000 m3    Full  Loss  Loss       1000 m3    Full    days hr:min        LPS
  --------------------------------------------------------------------------------------------------
  CC-storage               1.713      27     0     0         3.394      53       0  02:47    1783.53
  JK-storage               0.073      25     0     0         0.206      71       0  02:30    2300.00
  XR-storage               0.939      65     0     0         1.111      77       0  08:00     380.00
  
  
  ***********************
  Outfall Loading Summary
  ***********************
  
  -----------------------------------------------------------
                         Flow       Avg       Max       Total
                         Freq      Flow      Flow      Volume
  Outfall Node           Pcnt       LPS       LPS    10^6 ltr
  -----------------------------------------------------------
  CC-1                  43.23    683.00    683.00       4.369
  CC-2                  43.23    683.00    683.00       4.369
  JK-1                  10.01   1000.00   1000.00       1.730
  JK-2                  10.01   1000.00   1000.00       1.730
  WSC                   99.95    619.00   1518.41      13.275
  -----------------------------------------------------------
  System                41.29   3985.00   1518.41      25.472
  
  
  ********************
  Link Flow Summary
  ********************
  
  -----------------------------------------------------------------------------
                                 Maximum  Time of Max   Maximum    Max/    Max/
                                  |Flow|   Occurrence   |Veloc|    Full    Full
  Link                 Type          LPS  days hr:min     m/sec    Flow   Depth
  -----------------------------------------------------------------------------
  1                    CONDUIT   1518.41     0  02:28      3.71    0.53    0.52
  HS02004478WS02006287 CONDUIT   2306.24     0  02:25      2.60    0.65    1.00
  HS02004479HS02004480 CONDUIT    383.36     0  02:18      0.55    0.37    1.00
  HS02004480HS02004478 CONDUIT   2056.19     0  02:16      2.94    8.66    1.00
  HS02004770HS02004777 CONDUIT    697.27     0  02:13      1.00    1.28    1.00
  HS02004777HS02004785 CONDUIT    703.07     0  02:13      1.06    0.87    1.00
  HS02004785HS02004788 CONDUIT    633.74     0  02:13      1.36    4.78    1.00
  HS02004788HS02004792 CONDUIT    840.27     0  02:14      1.43    0.56    1.00
  HS02004792HS02004799 CONDUIT   1623.92     0  02:14      2.32    0.99    1.00
  HS02004799HS02004480 CONDUIT   1743.72     0  02:14      2.49    2.20    1.00
  HS02004802HS02004478 CONDUIT   1231.97     0  02:27      1.76    1.09    1.00
  HS02004807HS02004802 CONDUIT   1232.19     0  02:26      1.76    2.35    1.00
  HS02004817HS02004807 CONDUIT   1006.70     0  02:25      1.44    0.60    1.00
  HS02004817HS02004824 CONDUIT   1004.89     0  02:25      1.44    0.45    1.00
  HS02004824HS02004830 CONDUIT    567.29     0  02:14      0.83    0.74    1.00
  HS02004830HS02004837 CONDUIT    574.74     0  02:14      0.91    0.57    1.00
  HS02004837HS02004842 CONDUIT    737.31     0  02:17      1.05    0.44    1.00
  HS02004842HS02004848 CONDUIT    734.10     0  02:17      1.10    0.43    1.00
  HS02004848HS02004852 CONDUIT    999.90     0  02:17      1.52    1.13    1.00
  HS02004852HS02004856 CONDUIT    972.58     0  02:17      1.44    1.11    1.00
  HS02004856HS02004862 CONDUIT    993.16     0  02:17      1.65    0.99    1.00
  HS02004862HS02004870 CONDUIT   1072.51     0  02:16      1.89    1.16    1.00
  HS02004870HS02004876 CONDUIT   1222.40     0  02:25      1.75    0.81    1.00
  HS02004876HS02004881 CONDUIT   1465.95     0  02:25      2.42   15.59    1.00
  HS02004881HS02006253 CONDUIT   1584.21     0  02:25      2.63    0.31    1.00
  HS02004901HS02004770 CONDUIT    265.79     0  02:35      0.38    1.00    1.00
  WS02001211WS02001212 CONDUIT    211.78     0  02:58      0.54    0.16    0.69
  WS02001212WS02001213 CONDUIT    217.12     0  02:57      1.04    0.33    0.56
  WS02001213WS02003059 CONDUIT    222.33     0  02:57      0.47    0.37    0.90
  WS02003059WS02003060 CONDUIT    228.90     0  02:57      0.66    0.15    0.82
  WS02003060WS02003069 CONDUIT   1516.13     0  02:26      2.09    0.59    0.61
  WS02003066WSF200     CONDUIT   1316.48     0  02:25      3.25    0.22    0.39
  WS02003067WS02003066 CONDUIT   1316.26     0  02:25      2.01    0.42    0.56
  WS02003069WS02003072 CONDUIT   1516.05     0  02:27      1.90    0.73    0.67
  WS02003072WS02003073 CONDUIT   1516.28     0  02:27      2.06    3.27    0.62
  WS02004138WS02004139 CONDUIT    190.82     0  00:29      2.16    0.04    0.42
  WS02004139WS02001211 CONDUIT    197.29     0  02:58      0.54    0.25    0.61
  WS02004401WS02004402 CONDUIT   1323.78     0  02:25      1.69    1.59    1.00
  WS02004402WS02004403 CONDUIT   1323.35     0  02:25      1.68    1.90    1.00
  WS02004403WS02004404 CONDUIT   1322.41     0  02:25      1.68    0.96    1.00
  WS02004404WS02004405 CONDUIT   1320.74     0  02:25      1.68   12.94    1.00
  WS02004405WS02004406 CONDUIT   1322.93     0  02:25      1.68    2.61    1.00
  WS02004406WS02004407 CONDUIT   1323.50     0  02:25      1.70    0.59    0.98
  WS02004407WS02004409 CONDUIT   1315.37     0  02:25      1.70    0.47    0.98
  WS02004409WS02004410 CONDUIT   1315.40     0  02:25      1.67    1.70    1.00
  WS02004410WS02004411 CONDUIT   1315.74     0  02:25      1.68    1.80    1.00
  WS02004411WS02004412 CONDUIT   1315.41     0  02:25      1.67    1.87    1.00
  WS02004412WS02004413 CONDUIT   1315.43     0  02:25      1.67    0.88    1.00
  WS02004413WS02003067 CONDUIT   1315.58     0  02:25      2.03    0.56    0.77
  WS02006109WS02006110 CONDUIT   1143.49     0  02:40      2.27    2.20    1.00
  WS02006110WS02006113 CONDUIT   1132.89     0  02:40      2.25    1.03    1.00
  WS02006111WS02006112 CONDUIT   1121.84     0  02:38      2.23    0.53    1.00
  WS02006112WS02006115 CONDUIT   1315.77     0  02:25      1.68    0.78    1.00
  WS02006113WS02006111 CONDUIT   1121.54     0  02:38      2.63    1.34    1.00
  WS02006115WS02006116 CONDUIT   1320.35     0  02:25      1.68    1.69    1.00
  WS02006116WS02004401 CONDUIT   1322.85     0  02:25      1.68    1.82    1.00
  WS02006228WS02006109 CONDUIT   1288.87     0  02:25      2.56    5.63    1.00
  WS02006229WS02006228 CONDUIT   1288.37     0  02:25      2.56    4.27    1.00
  WS02006230WS02006229 CONDUIT   1017.63     0  02:25      2.64   22.65    1.00
  WS02006231WS02006230 CONDUIT    454.03     0  02:40      1.21    6.89    1.00
  WS02006232WS02006231 CONDUIT    453.49     0  02:38      1.18    0.95    1.00
  WS02006234WS02006232 CONDUIT    453.23     0  02:22      1.41    0.92    1.00
  WS02006235WS02006234 CONDUIT    412.58     0  02:25      1.21    4.35    1.00
  WS02006238WS02006235 CONDUIT    415.68     0  02:30      1.45    0.93    1.00
  WS02006239WS02006238 CONDUIT    415.12     0  02:24      1.11    1.33    1.00
  WS02006240WS02006239 CONDUIT    414.91     0  02:31      1.26    1.31    1.00
  WS02006242WS02006240 CONDUIT    415.28     0  02:30      1.14    1.65    1.00
  WS02006243WS02006242 CONDUIT    360.27     0  03:15      1.34    0.77    1.00
  WS02006245WS02006243 CONDUIT    371.62     0  00:05      1.39    1.10    1.00
  WS02006247WS02006245 CONDUIT    383.09     0  00:05      1.37    3.04    1.00
  WS02006248WS02006247 CONDUIT    385.59     0  00:04      1.38    0.84    1.00
  WS02006249WS02006248 CONDUIT    390.96     0  00:04      1.38    2.14    1.00
  WS02006251WS02006249 CONDUIT   1360.58     0  02:25      3.54    3.92    1.00
  WS02006252WS02006251 CONDUIT    409.87     0  02:50     19.65    1.50    1.00
  WS02006253WS02006251 CONDUIT   1624.13     0  02:25      4.22    4.87    1.00
  WS02006256WS02006235 CONDUIT    288.93     0  00:00      4.23    3.06    1.00
  WS02006280WS02006229 CONDUIT   2305.22     0  02:24      4.24    0.49    1.00
  WS02006284WS02006280 CONDUIT   2304.00     0  02:24      3.01    0.96    1.00
  WS02006287WS02006284 CONDUIT   2304.98     0  02:25      2.93    1.07    1.00
  WSF200WS02003060     CONDUIT   1316.54     0  02:26      2.30    0.29    0.51
  YS02001580YS02001583 CONDUIT     73.97     0  02:12      0.53    0.29    1.00
  YS02001583YS02001586 CONDUIT    122.41     0  02:12      0.51    0.19    1.00
  YS02001586YS02001590 CONDUIT    318.35     0  02:25      1.26    0.56    1.00
  YS02001590YS02001593 CONDUIT    318.09     0  02:25      1.13    2.00    1.00
  YS02001593YS02001596 CONDUIT    318.21     0  02:25      1.78    0.50    1.00
  YS02001596YS02001600 CONDUIT    318.03     0  02:38      1.26    0.62    1.00
  YS02001600YS02001601 CONDUIT    318.32     0  02:40      1.13    0.55    1.00
  YS02001601YS02001602 CONDUIT    501.07     0  02:44      1.77    1.81    1.00
  YS02001602YS02001605 CONDUIT    501.52     0  02:44      1.77   10.61    1.00
  YS02001605YS02001607 CONDUIT    501.83     0  02:44      1.77    2.75    1.00
  YS02001607YS02001610 CONDUIT    502.45     0  02:44      0.64    0.48    1.00
  YS02001610YS02001613 CONDUIT    503.12     0  02:44      0.64    0.58    1.00
  YS02001613YS02001616 CONDUIT    504.12     0  02:44      0.64    0.43    1.00
  YS02001616YS02001619 CONDUIT    504.51     0  02:44      0.68    0.88    1.00
  YS02001619YS02001622 CONDUIT    944.92     0  02:18      1.20    1.39    1.00
  YS02001622YS02001625 CONDUIT    944.73     0  02:18      1.20    0.50    1.00
  YS02001625YS02001629 CONDUIT    945.40     0  02:18      1.20    0.45    1.00
  YS02001629YS02163301 CONDUIT    952.91     0  02:40      1.21    1.17    1.00
  YS02001633YS02163601 CONDUIT   1395.05     0  02:18      1.78    1.46    1.00
  YS02001641YS02001644 CONDUIT   1394.24     0  02:18      1.78    4.51    1.00
  YS02001644YS02001647 CONDUIT   1776.27     0  02:18      2.28    1.04    1.00
  YS02001647YS02001649 CONDUIT   1790.43     0  02:18      2.35    0.95    1.00
  YS02001649YS02001757 CONDUIT   2046.40     0  02:18      2.61    1.24    1.00
  YS02001652YS02001649 CONDUIT    771.39     0  02:25      0.98    0.38    1.00
  YS02001655YS02001652 CONDUIT    770.89     0  02:25      1.24    0.37    1.00
  YS02001658YS02001655 CONDUIT    770.67     0  02:25      1.85    0.33    1.00
  YS02001661YS02001658 CONDUIT    771.89     0  02:25      2.30    0.30    0.96
  YS02001664YS02001661 CONDUIT    765.41     0  02:25      2.30    0.24    0.67
  YS02001745YS02001748 CONDUIT    524.19     0  02:23      2.11    0.20    0.85
  YS02001748YS02001751 CONDUIT    462.02     0  02:24      1.63    0.23    1.00
  YS02001751YS02001754 CONDUIT    461.88     0  02:24      1.36    0.22    1.00
  YS02001754YS02001757 CONDUIT    461.57     0  02:24      0.59    0.19    1.00
  YS02001757CaochengTiaoxuchi CONDUIT   3493.70     0  02:24      4.70    1.51    1.00
  YS02001759YS02001757 CONDUIT   1424.02     0  02:25      1.81    1.01    1.00
  YS02001762YS02001759 CONDUIT    802.33     0  02:27      1.02    0.92    1.00
  YS02001765YS02001762 CONDUIT    800.90     0  02:27      1.02    0.75    1.00
  YS02001767YS02001765 CONDUIT    800.32     0  02:27      1.02    1.01    1.00
  YS02001770YS02001767 CONDUIT    798.12     0  02:27      1.02    3.16    1.00
  YS02001774YS02001770 CONDUIT    212.14     0  02:19      0.27    0.14    1.00
  YS02001779YS02001774 CONDUIT    217.24     0  02:19      0.28    0.11    1.00
  YS02001783YS02001784 CONDUIT   1161.01     0  02:25      2.31    1.60    1.00
  YS02001784YS02001785 CONDUIT   1162.96     0  02:25      2.31    2.71    1.00
  YS02001786YS02001788 CONDUIT   1163.36     0  02:25      2.48    2.24    0.89
  YS02001788YS02001790 CONDUIT   1173.46     0  02:23      2.72    0.86    0.84
  YS02001790YS02001791 CONDUIT   1279.73     0  02:22      3.42    1.39    0.70
  YS02001791YS02001793 CONDUIT   1245.81     0  02:27      6.80    0.53    0.42
  YS02001793JiankangQianchi CONDUIT   1271.05     0  02:30      2.53    0.10    0.63
  YS02001882YS02001884 CONDUIT     32.81     0  02:17      0.12    0.04    1.00
  YS02001884YS02001887 CONDUIT     45.13     0  02:16      0.09    0.06    1.00
  YS02001887YS02001890 CONDUIT    691.72     0  02:25      0.88    1.18    1.00
  YS02001890YS02001895 CONDUIT    521.76     0  02:25      0.66    0.24    1.00
  YS02001895YS02001898 CONDUIT    518.34     0  02:25      0.66    0.90    1.00
  YS02001898YS02001901 CONDUIT    517.52     0  02:27      0.66    0.33    1.00
  YS02001901YS02001904 CONDUIT    517.58     0  02:27      0.66    0.80    1.00
  YS02001904YS02001907 CONDUIT    518.46     0  02:25      0.66    0.18    1.00
  YS02001907YS02006553 CONDUIT    796.79     0  02:35      0.89    0.94    1.00
  YS02001910YS02001907 CONDUIT   1160.54     0  02:25      1.48    0.65    1.00
  YS02001915YS02001910 CONDUIT   1157.62     0  02:25      1.47    0.57    1.00
  YS02001918YS02001915 CONDUIT    462.61     0  02:20      0.59    0.26    1.00
  YS02001920YS02001918 CONDUIT    460.71     0  02:20      0.65    0.45    1.00
  YS02001923YS02001920 CONDUIT    456.95     0  02:20      0.71    0.21    1.00
  YS02001926YS02001923 CONDUIT    423.47     0  02:20      0.96    0.60    1.00
  YS02001929YS02001926 CONDUIT    420.18     0  02:20      1.10    0.20    1.00
  YS02006553YS02006556 CONDUIT    796.81     0  02:35      1.01    0.68    1.00
  YS02006556YS02006558 CONDUIT    799.27     0  02:35      1.02    0.63    1.00
  YS02006558YS02006561 CONDUIT   1160.64     0  02:24      4.10    2.57    1.00
  YS02006561YS02001783 CONDUIT   1161.57     0  02:25      2.31    0.60    1.00
  YS02163301YS02001633 CONDUIT    946.10     0  02:18      1.20    0.89    1.00
  YS02163601YS02164001 CONDUIT   1395.71     0  02:18      1.78    1.24    1.00
  YS02164001YS02001641 CONDUIT   1394.05     0  02:18      1.77    1.90    1.00
  YSB1154YSB6556       CONDUIT    390.35     0  02:25      1.01    0.70    1.00
  YSB1171HS02004479    CONDUIT    383.68     0  02:18      0.76    0.26    1.00
  YSB1174YSB1171       CONDUIT    321.74     0  02:25      0.84    0.49    1.00
  YSB6556YSB1171       CONDUIT    391.14     0  02:25      1.02    0.40    1.00
  CC-R1                PUMP       683.00     0  00:00              1.00
  CC-R2                PUMP       683.00     0  00:00              1.00
  CC-S1                PUMP       200.00     0  00:00              1.00
  CC-S2                PUMP       200.00     0  00:00              1.00
  JK-R1                PUMP      1000.00     0  00:00              1.00
  JK-R2                PUMP      1000.00     0  00:00              1.00
  JK-S                 PUMP       300.00     0  00:00              1.00
  XR-1                 PUMP        95.00     0  00:00              1.00
  XR-2                 PUMP        95.00     0  00:00              1.00
  XR-3                 PUMP        95.00     0  00:00              1.00
  XR-4                 PUMP        95.00     0  00:00              1.00
  
  
  ***************************
  Flow Classification Summary
  ***************************
  
  -------------------------------------------------------------------------------------
                      Adjusted    ---------- Fraction of Time in Flow Class ---------- 
                       /Actual         Up    Down  Sub   Sup   Up    Down  Norm  Inlet 
  Conduit               Length    Dry  Dry   Dry   Crit  Crit  Crit  Crit  Ltd   Ctrl  
  -------------------------------------------------------------------------------------
  1                       1.00   0.00  0.00  0.00  0.00  1.00  0.00  0.00  0.33  0.00
  HS02004478WS02006287    1.00   0.11  0.00  0.00  0.54  0.35  0.00  0.00  0.59  0.00
  HS02004479HS02004480    1.00   0.05  0.00  0.00  0.95  0.00  0.00  0.00  0.11  0.00
  HS02004480HS02004478    1.00   0.10  0.00  0.00  0.47  0.00  0.00  0.43  0.00  0.00
  HS02004770HS02004777    1.00   0.00  0.10  0.00  0.90  0.00  0.00  0.00  0.03  0.00
  HS02004777HS02004785    1.00   0.00  0.00  0.00  1.00  0.00  0.00  0.00  0.12  0.00
  HS02004785HS02004788    1.00   0.00  0.00  0.00  1.00  0.00  0.00  0.00  0.00  0.00
  HS02004788HS02004792    1.00   0.00  0.00  0.00  0.99  0.01  0.00  0.00  0.90  0.00
  HS02004792HS02004799    1.00   0.00  0.00  0.00  0.98  0.02  0.00  0.00  0.86  0.00
  HS02004799HS02004480    1.00   0.00  0.05  0.00  0.89  0.00  0.06  0.00  0.00  0.00
  HS02004802HS02004478    1.00   0.10  0.00  0.00  0.90  0.00  0.00  0.00  0.03  0.00
  HS02004807HS02004802    1.00   0.10  0.00  0.00  0.89  0.00  0.00  0.01  0.00  0.00
  HS02004817HS02004807    1.00   0.00  0.10  0.00  0.90  0.00  0.00  0.00  0.01  0.00
  HS02004817HS02004824    1.00   0.00  0.00  0.00  1.00  0.00  0.00  0.00  0.82  0.00
  HS02004824HS02004830    1.00   0.00  0.00  0.00  1.00  0.00  0.00  0.00  0.01  0.00
  HS02004830HS02004837    1.00   0.00  0.00  0.00  1.00  0.00  0.00  0.00  0.88  0.00
  HS02004837HS02004842    1.00   0.00  0.00  0.00  1.00  0.00  0.00  0.00  0.11  0.00
  HS02004842HS02004848    1.00   0.00  0.10  0.00  0.90  0.00  0.00  0.00  0.56  0.00
  HS02004848HS02004852    1.00   0.10  0.00  0.00  0.90  0.00  0.00  0.00  0.69  0.00
  HS02004852HS02004856    1.00   0.10  0.00  0.00  0.90  0.00  0.00  0.00  0.68  0.00
  HS02004856HS02004862    1.00   0.00  0.12  0.00  0.88  0.00  0.00  0.00  0.74  0.00
  HS02004862HS02004870    1.00   0.00  0.00  0.00  1.00  0.00  0.00  0.00  0.03  0.00
  HS02004870HS02004876    1.00   0.00  0.00  0.00  0.99  0.01  0.00  0.00  0.86  0.00
  HS02004876HS02004881    1.00   0.04  0.00  0.00  0.69  0.27  0.00  0.00  0.00  0.00
  HS02004881HS02006253    1.00   0.03  0.03  0.00  0.36  0.04  0.00  0.54  0.14  0.00
  HS02004901HS02004770    1.00   0.10  0.00  0.00  0.90  0.00  0.00  0.00  0.00  0.00
  WS02001211WS02001212    1.00   0.00  0.04  0.00  0.96  0.00  0.00  0.00  0.00  0.00
  WS02001212WS02001213    1.00   0.04  0.00  0.00  0.46  0.00  0.49  0.00  0.00  0.00
  WS02001213WS02003059    1.00   0.00  0.00  0.00  0.99  0.00  0.00  0.00  0.00  0.00
  WS02003059WS02003060    1.00   0.00  0.00  0.00  1.00  0.00  0.00  0.00  0.03  0.00
  WS02003060WS02003069    1.00   0.00  0.00  0.00  0.99  0.01  0.00  0.00  0.56  0.00
  WS02003066WSF200        1.00   0.07  0.00  0.00  0.00  0.93  0.00  0.00  0.68  0.00
  WS02003067WS02003066    1.00   0.07  0.00  0.00  0.93  0.00  0.00  0.00  0.00  0.00
  WS02003069WS02003072    1.00   0.00  0.00  0.00  1.00  0.00  0.00  0.00  0.70  0.00
  WS02003072WS02003073    1.00   0.00  0.00  0.00  0.00  0.00  0.00  1.00  0.00  0.00
  WS02004138WS02004139    1.00   0.00  0.01  0.00  0.96  0.01  0.00  0.02  0.98  0.00
  WS02004139WS02001211    1.00   0.00  0.00  0.00  0.99  0.00  0.00  0.00  0.00  0.00
  WS02004401WS02004402    1.00   0.04  0.00  0.00  0.96  0.00  0.00  0.00  0.00  0.00
  WS02004402WS02004403    1.00   0.04  0.00  0.00  0.96  0.00  0.00  0.00  0.00  0.00
  WS02004403WS02004404    1.00   0.00  0.04  0.00  0.96  0.00  0.00  0.00  0.00  0.00
  WS02004404WS02004405    1.00   0.00  0.00  0.00  1.00  0.00  0.00  0.00  0.00  0.00
  WS02004405WS02004406    1.00   0.00  0.00  0.00  1.00  0.00  0.00  0.00  0.00  0.00
  WS02004406WS02004407    1.00   0.00  0.05  0.00  0.95  0.00  0.00  0.00  0.00  0.00
  WS02004407WS02004409    1.00   0.06  0.00  0.00  0.94  0.00  0.00  0.00  0.83  0.00
  WS02004409WS02004410    1.00   0.06  0.00  0.00  0.94  0.00  0.00  0.00  0.00  0.00
  WS02004410WS02004411    1.00   0.06  0.00  0.00  0.94  0.00  0.00  0.00  0.00  0.00
  WS02004411WS02004412    1.00   0.06  0.00  0.00  0.94  0.00  0.00  0.00  0.00  0.00
  WS02004412WS02004413    1.00   0.06  0.00  0.00  0.94  0.00  0.00  0.00  0.01  0.00
  WS02004413WS02003067    1.00   0.06  0.01  0.00  0.00  0.00  0.93  0.00  0.00  0.00
  WS02006109WS02006110    1.00   0.00  0.01  0.00  0.97  0.00  0.03  0.00  0.00  0.00
  WS02006110WS02006113    1.00   0.01  0.03  0.00  0.97  0.00  0.00  0.00  0.00  0.00
  WS02006111WS02006112    1.00   0.04  0.00  0.00  0.96  0.00  0.00  0.00  0.79  0.00
  WS02006112WS02006115    1.00   0.04  0.00  0.00  0.96  0.00  0.00  0.00  0.00  0.00
  WS02006113WS02006111    1.00   0.03  0.00  0.00  0.27  0.70  0.00  0.00  0.06  0.00
  WS02006115WS02006116    1.00   0.04  0.00  0.00  0.95  0.00  0.00  0.01  0.00  0.00
  WS02006116WS02004401    1.00   0.04  0.00  0.00  0.96  0.00  0.00  0.00  0.00  0.00
  WS02006228WS02006109    1.00   0.00  0.00  0.00  1.00  0.00  0.00  0.00  0.00  0.00
  WS02006229WS02006228    1.00   0.00  0.00  0.00  0.99  0.00  0.00  0.01  0.00  0.00
  WS02006230WS02006229    1.00   0.00  0.00  0.00  0.98  0.00  0.00  0.02  0.02  0.00
  WS02006231WS02006230    1.00   0.00  0.00  0.00  0.50  0.00  0.49  0.00  0.00  0.00
  WS02006232WS02006231    1.00   0.00  0.00  0.00  0.99  0.00  0.00  0.00  0.00  0.00
  WS02006234WS02006232    1.00   0.00  0.00  0.00  1.00  0.00  0.00  0.00  0.21  0.00
  WS02006235WS02006234    1.00   0.00  0.00  0.00  0.75  0.00  0.25  0.00  0.00  0.00
[...]
  WS02006280WS02006229    1.00   0.10  0.00  0.00  0.22  0.04  0.00  0.64  0.01  0.00
  WS02006284WS02006280    1.00   0.10  0.00  0.00  0.15  0.01  0.00  0.73  0.00  0.00
  WS02006287WS02006284    1.00   0.09  0.03  0.00  0.44  0.45  0.00  0.00  0.64  0.00
  WSF200WS02003060        1.00   0.00  0.07  0.00  0.49  0.43  0.00  0.00  0.66  0.00
  YS02001580YS02001583    1.00   0.31  0.38  0.00  0.31  0.00  0.00  0.00  0.64  0.00
  YS02001583YS02001586    1.00   0.30  0.33  0.00  0.37  0.00  0.00  0.00  0.65  0.00
  YS02001586YS02001590    1.00   0.10  0.00  0.00  0.63  0.03  0.00  0.25  0.36  0.00
  YS02001590YS02001593    1.00   0.10  0.00  0.00  0.15  0.00  0.75  0.00  0.00  0.00
  YS02001593YS02001596    1.00   0.10  0.00  0.00  0.18  0.02  0.00  0.70  0.02  0.00
  YS02001596YS02001600    1.00   0.10  0.00  0.00  0.31  0.03  0.00  0.56  0.05  0.00
  YS02001600YS02001601    1.00   0.10  0.00  0.00  0.90  0.00  0.00  0.00  0.61  0.00
  YS02001601YS02001602    1.00   0.10  0.00  0.00  0.90  0.00  0.00  0.00  0.00  0.00
  YS02001602YS02001605    1.00   0.10  0.00  0.00  0.90  0.00  0.00  0.00  0.00  0.00
  YS02001605YS02001607    1.00   0.10  0.00  0.00  0.90  0.00  0.00  0.00  0.00  0.00
  YS02001607YS02001610    1.00   0.10  0.00  0.00  0.90  0.00  0.00  0.00  0.01  0.00
  YS02001610YS02001613    1.00   0.10  0.00  0.00  0.90  0.00  0.00  0.00  0.00  0.00
  YS02001613YS02001616    1.00   0.10  0.00  0.00  0.90  0.00  0.00  0.00  0.00  0.00
  YS02001616YS02001619    1.00   0.10  0.00  0.00  0.90  0.00  0.00  0.00  0.00  0.00
  YS02001619YS02001622    1.00   0.10  0.00  0.00  0.90  0.00  0.00  0.00  0.33  0.00
  YS02001622YS02001625    1.00   0.10  0.00  0.00  0.90  0.00  0.00  0.00  0.04  0.00
  YS02001625YS02001629    1.00   0.10  0.03  0.00  0.22  0.00  0.65  0.00  0.00  0.00
  YS02001629YS02163301    1.00   0.11  0.01  0.00  0.89  0.00  0.00  0.00  0.00  0.00
  YS02001633YS02163601    1.00   0.00  0.01  0.00  0.99  0.00  0.00  0.00  0.15  0.00
  YS02001641YS02001644    1.00   0.00  0.00  0.00  1.00  0.00  0.00  0.00  0.00  0.00
  YS02001644YS02001647    1.00   0.00  0.12  0.00  0.88  0.00  0.00  0.00  0.00  0.00
  YS02001647YS02001649    1.00   0.00  0.12  0.00  0.43  0.45  0.00  0.00  0.57  0.00
  YS02001649YS02001757    1.00   0.00  0.00  0.00  0.50  0.50  0.00  0.00  0.56  0.00
  YS02001652YS02001649    1.00   0.00  0.00  0.00  0.97  0.02  0.00  0.00  0.76  0.00
  YS02001655YS02001652    1.00   0.00  0.00  0.00  0.24  0.03  0.00  0.73  0.08  0.00
  YS02001658YS02001655    1.00   0.00  0.10  0.00  0.48  0.42  0.00  0.00  0.74  0.00
  YS02001661YS02001658    1.00   0.10  0.00  0.00  0.33  0.57  0.00  0.00  0.73  0.00
  YS02001664YS02001661    1.00   0.10  0.00  0.00  0.68  0.23  0.00  0.00  0.86  0.00
  YS02001745YS02001748    1.00   0.00  0.00  0.00  0.05  0.01  0.00  0.93  0.03  0.00
  YS02001748YS02001751    1.00   0.00  0.00  0.00  0.62  0.38  0.00  0.00  0.78  0.00
  YS02001751YS02001754    1.00   0.00  0.00  0.00  0.15  0.01  0.00  0.83  0.03  0.00
  YS02001754YS02001757    1.00   0.00  0.00  0.00  1.00  0.00  0.00  0.00  0.87  0.00
  YS02001757CaochengTiaoxuchi    1.00   0.00  0.00  0.00  0.85  0.15  0.00  0.00  0.85  0.00
  YS02001759YS02001757    1.00   0.00  0.00  0.00  1.00  0.00  0.00  0.00  0.62  0.00
  YS02001762YS02001759    1.00   0.00  0.00  0.00  1.00  0.00  0.00  0.00  0.04  0.00
  YS02001765YS02001762    1.00   0.00  0.00  0.00  1.00  0.00  0.00  0.00  0.73  0.00
  YS02001767YS02001765    1.00   0.00  0.00  0.00  1.00  0.00  0.00  0.00  0.00  0.00
  YS02001770YS02001767    1.00   0.00  0.00  0.00  1.00  0.00  0.00  0.00  0.00  0.00
  YS02001774YS02001770    1.00   0.00  0.10  0.00  0.75  0.00  0.15  0.00  0.03  0.00
  YS02001779YS02001774    1.00   0.00  0.00  0.00  1.00  0.00  0.00  0.00  0.80  0.00
  YS02001783YS02001784    1.00   0.00  0.13  0.00  0.87  0.00  0.00  0.00  0.57  0.00
  YS02001784YS02001785    1.00   0.00  0.00  0.00  1.00  0.00  0.00  0.00  0.17  0.00
  YS02001786YS02001788    1.00   0.00  0.00  0.00  0.60  0.40  0.00  0.00  0.00  0.00
  YS02001788YS02001790    1.00   0.00  0.00  0.00  0.16  0.84  0.00  0.00  0.81  0.00
  YS02001790YS02001791    1.00   0.00  0.00  0.00  0.02  0.98  0.00  0.00  0.16  0.00
  YS02001791YS02001793    1.00   0.00  0.00  0.00  0.00  1.00  0.00  0.00  0.01  0.00
  YS02001793JiankangQianchi    1.00   0.00  0.00  0.00  0.96  0.04  0.00  0.00  0.99  0.00
  YS02001882YS02001884    1.00   0.11  0.00  0.00  0.89  0.00  0.00  0.00  0.00  0.00
  YS02001884YS02001887    1.00   0.06  0.03  0.00  0.91  0.00  0.00  0.00  0.00  0.00
  YS02001887YS02001890    1.00   0.00  0.00  0.00  0.95  0.00  0.05  0.00  0.00  0.00
  YS02001890YS02001895    1.00   0.00  0.11  0.00  0.89  0.00  0.00  0.00  0.00  0.00
  YS02001895YS02001898    1.00   0.11  0.00  0.00  0.87  0.00  0.02  0.00  0.00  0.00
  YS02001898YS02001901    1.00   0.11  0.00  0.00  0.88  0.00  0.00  0.00  0.01  0.00
  YS02001901YS02001904    1.00   0.11  0.00  0.00  0.89  0.00  0.00  0.00  0.00  0.00
  YS02001904YS02001907    1.00   0.00  0.11  0.00  0.89  0.00  0.00  0.00  0.00  0.00
  YS02001907YS02006553    1.00   0.00  0.04  0.00  0.96  0.00  0.00  0.00  0.00  0.00
  YS02001910YS02001907    1.00   0.00  0.00  0.00  0.95  0.00  0.00  0.04  0.12  0.00
  YS02001915YS02001910    1.00   0.00  0.00  0.00  0.96  0.04  0.00  0.00  0.16  0.00
  YS02001918YS02001915    1.00   0.00  0.00  0.00  0.96  0.04  0.00  0.00  0.77  0.00
  YS02001920YS02001918    1.00   0.00  0.00  0.00  1.00  0.00  0.00  0.00  0.00  0.00
  YS02001923YS02001920    1.00   0.00  0.00  0.00  1.00  0.00  0.00  0.00  0.94  0.00
  YS02001926YS02001923    1.00   0.00  0.07  0.00  0.07  0.00  0.86  0.00  0.00  0.00
  YS02001929YS02001926    1.00   0.00  0.10  0.00  0.90  0.00  0.00  0.00  0.83  0.00
  YS02006553YS02006556    1.00   0.02  0.00  0.00  0.98  0.00  0.00  0.00  0.03  0.00
  YS02006556YS02006558    1.00   0.00  0.00  0.00  1.00  0.00  0.00  0.00  0.00  0.00
  YS02006558YS02006561    1.00   0.13  0.00  0.00  0.06  0.81  0.00  0.00  0.18  0.00
  YS02006561YS02001783    1.00   0.13  0.00  0.00  0.11  0.76  0.00  0.00  0.70  0.00
  YS02163301YS02001633    1.00   0.00  0.11  0.00  0.89  0.00  0.00  0.00  0.00  0.00
  YS02163601YS02164001    1.00   0.00  0.08  0.00  0.92  0.00  0.00  0.00  0.00  0.00
  YS02164001YS02001641    1.00   0.01  0.07  0.00  0.92  0.00  0.00  0.00  0.05  0.00
  YSB1154YSB6556          1.00   0.10  0.00  0.00  0.90  0.00  0.00  0.00  0.02  0.00
  YSB1171HS02004479       1.00   0.05  0.00  0.00  0.94  0.00  0.00  0.01  0.10  0.00
  YSB1174YSB1171          1.00   0.06  0.02  0.00  0.92  0.00  0.00  0.00  0.00  0.00
  YSB6556YSB1171          1.00   0.05  0.04  0.00  0.90  0.00  0.00  0.00  0.00  0.00
  
  
  *************************
  Conduit Surcharge Summary
  *************************
  
  ----------------------------------------------------------------------------
                                                           Hours        Hours 
                         --------- Hours Full --------   Above Full   Capacity
  Conduit                Both Ends  Upstream  Dnstream   Normal Flow   Limited
  ----------------------------------------------------------------------------
  HS02004478WS02006287        0.44      0.44      0.63      0.01         0.01
  HS02004479HS02004480        0.63      0.63      0.66      0.01         0.01
  HS02004480HS02004478        0.55      0.62      0.55      1.69         0.55
  HS02004770HS02004777        0.53      0.53      0.53      0.11         0.07
  HS02004777HS02004785        0.48      0.48      0.53      0.01         0.01
  HS02004785HS02004788        0.47      0.48      0.47      1.37         0.44
  HS02004788HS02004792        0.47      0.47      0.59      0.01         0.01
  HS02004792HS02004799        0.59      0.59      0.73      0.01         0.01
  HS02004799HS02004480        0.62      0.62      0.73      0.82         0.01
  HS02004802HS02004478        0.57      0.57      0.64      0.07         0.01
  HS02004807HS02004802        0.61      0.61      0.63      0.22         0.23
  HS02004817HS02004807        0.61      0.61      1.18      0.01         0.01
  HS02004817HS02004824        0.47      0.47      1.18      0.01         0.01
  HS02004824HS02004830        0.44      0.44      0.47      0.01         0.01
  HS02004830HS02004837        0.41      0.41      0.44      0.01         0.01
  HS02004837HS02004842        0.41      0.41      0.54      0.01         0.01
  HS02004842HS02004848        0.36      0.36      0.54      0.01         0.01
  HS02004848HS02004852        0.36      0.36      0.38      0.03         0.01
  HS02004852HS02004856        0.38      0.38      0.40      0.02         0.01
  HS02004856HS02004862        0.38      0.38      0.41      0.01         0.01
  HS02004862HS02004870        0.41      0.41      0.42      0.17         0.16
  HS02004870HS02004876        0.42      0.42      0.49      0.01         0.01
  HS02004876HS02004881        0.47      0.49      0.47      1.39         0.47
  HS02004881HS02006253        0.47      0.47      1.30      0.01         0.01
  HS02004901HS02004770        0.53      0.53      0.53      0.01         0.01
  WS02003072WS02003073        0.01      0.01      0.01      2.09         0.01
  WS02004401WS02004402        1.45      1.45      1.46      1.26         1.26
  WS02004402WS02004403        1.46      1.46      1.46      1.44         1.43
  WS02004403WS02004404        1.46      1.46      1.56      0.01         0.02
  WS02004404WS02004405        1.54      1.56      1.54      2.60         1.54
  WS02004405WS02004406        1.52      1.54      1.52      1.71         1.52
  WS02004406WS02004407        0.01      0.01      1.52      0.01         0.01
  WS02004407WS02004409        0.01      0.01      0.99      0.01         0.01
  WS02004409WS02004410        0.92      0.99      0.92      1.33         0.92
  WS02004410WS02004411        0.83      0.92      0.83      1.39         0.83
  WS02004411WS02004412        0.74      0.83      0.74      1.43         0.74
  WS02004412WS02004413        0.74      0.74      1.20      0.01         0.01
  WS02004413WS02003067        0.01      0.01      1.20      0.01         0.01
  WS02006109WS02006110        1.66      1.66      1.90      1.67         0.01
  WS02006110WS02006113        1.18      1.18      1.89      0.26         0.01
  WS02006111WS02006112        1.16      1.16      2.02      0.01         0.01
  WS02006112WS02006115        1.34      1.34      1.75      0.01         0.01
  WS02006113WS02006111        1.17      1.18      1.17      1.25         1.17
  WS02006115WS02006116        1.35      1.35      1.35      1.32         1.31
  WS02006116WS02004401        1.44      1.44      1.45      1.40         1.40
  WS02006228WS02006109        1.87      1.90      1.87      2.12         1.87
  WS02006229WS02006228        1.86      1.88      1.86      1.98         1.86
  WS02006230WS02006229        1.92      1.93      1.92      2.36         0.76
  WS02006231WS02006230        1.51      1.51      1.54      2.01         1.02
  WS02006232WS02006231        1.52      1.52      1.72      0.01         0.13
  WS02006234WS02006232        1.58      1.58      1.72      0.01         0.01
  WS02006235WS02006234        1.55      1.55      1.59      1.78         0.97
  WS02006238WS02006235        1.60      1.60      1.63      0.01         0.31
  WS02006239WS02006238        1.60      1.60      1.61      0.89         0.12
  WS02006240WS02006239        1.52      1.52      1.56      0.88         0.11
  WS02006242WS02006240        1.50      1.50      1.59      1.19         0.80
  WS02006243WS02006242        1.47      1.47      1.53      0.01         0.01
  WS02006245WS02006243        1.45      1.45      1.46      0.10         0.07
  WS02006247WS02006245        1.44      1.45      1.44      1.62         0.35
  WS02006248WS02006247        1.42      1.42      1.45      0.01         0.01
  WS02006249WS02006248        1.41      1.41      1.42      0.55         0.01
  WS02006251WS02006249        1.41      1.41      1.42      1.34         1.28
  WS02006252WS02006251        1.37      1.37      1.44      0.73         0.01
  WS02006253WS02006251        1.40      1.41      1.42      0.74         0.03
  WS02006256WS02006235        2.20      2.20      5.78      0.02         0.01
  WS02006280WS02006229        0.75      0.75      0.86      0.01         0.01
  WS02006284WS02006280        0.65      0.65      0.73      0.01         0.01
  WS02006287WS02006284        0.54      0.54      0.66      0.26         0.26
  YS02001580YS02001583        0.51      0.51      0.53      0.01         0.01
  YS02001583YS02001586        0.51      0.51      0.60      0.01         0.01
  YS02001586YS02001590        0.61      0.61      0.67      0.01         0.01
  YS02001590YS02001593        0.67      0.67      0.69      0.70         0.01
  YS02001593YS02001596        0.68      0.68      0.78      0.01         0.01
  YS02001596YS02001600        0.84      0.84      0.94      0.01         0.01
  YS02001600YS02001601        1.02      1.02      1.30      0.01         0.01
  YS02001601YS02001602        1.19      1.19      1.35      0.97         0.01
  YS02001602YS02001605        1.13      1.13      1.19      2.20         0.01
  YS02001605YS02001607        1.08      1.13      1.08      1.27         1.08
  YS02001607YS02001610        0.61      0.61      0.64      0.01         0.01
  YS02001610YS02001613        0.60      0.60      0.64      0.01         0.01
  YS02001613YS02001616        0.56      0.56      0.60      0.01         0.01
  YS02001616YS02001619        0.55      0.55      0.56      0.01         0.01
  YS02001619YS02001622        0.54      0.55      0.54      0.71         0.53
  YS02001622YS02001625        0.54      0.54      0.73      0.01         0.01
  YS02001625YS02001629        0.48      0.48      0.73      0.01         0.01
  YS02001629YS02163301        0.71      0.71      0.71      0.32         0.32
  YS02001633YS02163601        0.73      0.73      0.77      0.45         0.45
  YS02001641YS02001644        0.57      0.62      0.57      1.39         0.57
  YS02001644YS02001647        0.35      0.35      0.57      0.05         0.01
  YS02001647YS02001649        0.35      0.35      0.40      0.01         0.01
  YS02001649YS02001757        0.39      0.40      0.40      0.41         0.31
  YS02001652YS02001649        0.28      0.28      0.40      0.01         0.01
  YS02001655YS02001652        0.19      0.19      0.27      0.01         0.01
  YS02001658YS02001655        0.11      0.11      0.19      0.01         0.01
  YS02001661YS02001658        0.01      0.01      0.11      0.01         0.01
  YS02001745YS02001748        0.01      0.01      0.03      0.01         0.01
  YS02001748YS02001751        0.07      0.07      0.12      0.01         0.01
  YS02001751YS02001754        0.12      0.12      0.19      0.01         0.01
  YS02001754YS02001757        0.21      0.21      0.40      0.01         0.01
  YS02001757CaochengTiaoxuchi        0.21      0.40      0.60      0.39         0.13
  YS02001759YS02001757        0.34      0.34      0.40      0.01         0.03
  YS02001762YS02001759        0.32      0.32      0.34      0.01         0.03
  YS02001765YS02001762        0.30      0.30      0.32      0.01         0.01
  YS02001767YS02001765        0.28      0.28      0.30      0.01         0.05
  YS02001770YS02001767        0.28      0.28      0.28      0.48         0.25
  YS02001774YS02001770        0.27      0.27      0.32      0.01         0.01
  YS02001779YS02001774        0.21      0.21      0.32      0.01         0.01
  YS02001783YS02001784        0.40      0.42      0.40      0.58         0.40
  YS02001784YS02001785        0.30      0.40      0.30      0.81         0.30
  YS02001786YS02001788        0.01      0.30      0.01      0.70         0.01
  YS02001790YS02001791        0.01      0.01      0.01      0.39         0.01
  YS02001793JiankangQianchi        0.01      0.01      7.70      0.01         0.01
  YS02001882YS02001884        0.37      0.37      0.38      0.01         0.01
  YS02001884YS02001887        0.40      0.40      0.41      0.01         0.01
  YS02001887YS02001890        0.43      0.43      0.44      0.06         0.01
  YS02001890YS02001895        0.36      0.36      0.45      0.01         0.01
  YS02001895YS02001898        0.35      0.35      0.36      0.01         0.01
  YS02001898YS02001901        0.36      0.36      0.40      0.01         0.01
  YS02001901YS02001904        0.39      0.39      0.40      0.01         0.01
  YS02001904YS02001907        0.39      0.39      0.67      0.01         0.01
  YS02001907YS02006553        0.82      0.82      0.89      0.01         0.01
  YS02001910YS02001907        0.45      0.45      0.66      0.01         0.01
  YS02001915YS02001910        0.37      0.37      0.45      0.01         0.01
  YS02001918YS02001915        0.29      0.29      0.37      0.01         0.01
  YS02001920YS02001918        0.29      0.29      0.30      0.01         0.01
  YS02001923YS02001920        0.25      0.25      0.30      0.01         0.01
  YS02001926YS02001923        0.02      0.02      0.03      0.01         0.01
  YS02001929YS02001926        0.01      0.01      0.03      0.01         0.01
  YS02006553YS02006556        0.55      0.55      0.68      0.01         0.01
  YS02006556YS02006558        0.61      0.61      0.69      0.01         0.01
  YS02006558YS02006561        0.32      0.53      0.32      0.77         0.32
  YS02006561YS02001783        0.25      0.25      0.42      0.01         0.01
  YS02163301YS02001633        0.71      0.71      0.76      0.01         0.01
  YS02163601YS02164001        0.64      0.64      0.77      0.25         0.01
  YS02164001YS02001641        0.62      0.64      0.62      0.71         0.51
  YSB1154YSB6556              0.69      0.69      0.85      0.01         0.01
  YSB1171HS02004479           0.58      0.58      0.85      0.01         0.01
  YSB1174YSB1171              0.77      0.77      1.11      0.01         0.01
  YSB6556YSB1171              0.69      0.69      1.25      0.01         0.01
  
  
  ***************
  Pumping Summary
  ***************
  
  ---------------------------------------------------------------------------------------------------------
                                                  Min       Avg       Max     Total     Power    % Time Off
                        Percent   Number of      Flow      Flow      Flow    Volume     Usage    Pump Curve
  Pump                 Utilized   Start-Ups       LPS       LPS       LPS  10^6 ltr     Kw-hr    Low   High
  ---------------------------------------------------------------------------------------------------------
  CC-R1                   22.43          50      0.00    683.00    683.00     4.413     75.81    0.0   66.8
  CC-R2                   22.43          50      0.00    683.00    683.00     4.413     75.81    0.0   66.8
  CC-S1                   11.65           2      0.00    200.00    200.00     0.671      5.06    0.0    0.0
  CC-S2                   22.43          50      0.00    200.00    200.00     1.292      9.86    0.0    0.0
  JK-R1                    6.13          52      0.00   1000.00   1000.00     1.765     14.14    0.0    0.0
  JK-R2                    6.13          52      0.00   1000.00   1000.00     1.765     14.14    0.0    0.0
  JK-S                     2.37           3      0.00    300.00    300.00     0.204      3.39    0.0    0.0
  XR-1                    97.91           2      0.00     95.00     95.00     2.679      9.61    0.0    0.0
  XR-2                    93.94           2      0.00     95.00     95.00     2.570      8.77    0.0    0.0
  XR-3                     0.00           1      0.00     95.00     95.00     0.000      0.00    0.0    0.0
  XR-4                     0.00           1      0.00     95.00     95.00     0.000      0.00    0.0    0.0
  

  Analysis begun on:  Tue Jun 20 19:22:29 2023
  Analysis ended on:  Tue Jun 20 19:22:40 2023
  Total elapsed time: 00:00:11