
  OWA STORM WATER MANAGEMENT MODEL - VERSION v5.1.14 (OWA 2022-07-31)
  --------------------------------------------------------------

  WARNING 04: minimum elevation drop used for Conduit WS02004404WS02004405
  WARNING 03: negative offset ignored for Link YS02001904YS02001907
  
  *********************************************************
  NOTE: The summary statistics displayed in this report are
  based on results found at every computational time step,  
  not just on results from each reporting time step.
  *********************************************************
  
  ****************
  Analysis Options
  ****************
  Flow Units ............... LPS
  Process Models:
    Rainfall/Runoff ........ YES
    RDII ................... NO
    Snowmelt ............... NO
    Groundwater ............ NO
    Flow Routing ........... YES
    Ponding Allowed ........ NO
    Water Quality .......... NO
  Infiltration Method ...... HORTON
  Flow Routing Method ...... DYNWAVE
  Surcharge Method ......... EXTRAN
  Starting Date ............ 08/28/2015 08:00:00
  Ending Date .............. 08/28/2015 16:00:00
  Antecedent Dry Days ...... 8.0
  Report Time Step ......... 00:01:00
  Wet Time Step ............ 00:01:00
  Dry Time Step ............ 00:01:00
  Routing Time Step ........ 30.00 sec
  Variable Time Step ....... YES
  Maximum Trials ........... 8
  Number of Threads ........ 2
  Head Tolerance ........... 0.001500 m
  
  
  **************************        Volume         Depth
  Runoff Quantity Continuity     hectare-m            mm
  **************************     ---------       -------
  Initial LID Storage ......         0.072         1.184
  Total Precipitation ......         2.591        42.770
  Evaporation Loss .........         0.000         0.000
  Infiltration Loss ........         0.190         3.144
  Surface Runoff ...........         1.916        31.636
  Final Storage ............         0.557         9.191
  Continuity Error (%) .....        -0.038
  
  
  **************************        Volume        Volume
  Flow Routing Continuity        hectare-m      10^6 ltr
  **************************     ---------     ---------
  Dry Weather Inflow .......         0.630         6.296
  Wet Weather Inflow .......         1.916        19.162
  Groundwater Inflow .......         0.000         0.000
  RDII Inflow ..............         0.000         0.000
  External Inflow ..........         0.105         1.045
  External Outflow .........         2.038        20.376
  Flooding Loss ............         0.608         6.082
  Evaporation Loss .........         0.000         0.000
  Exfiltration Loss ........         0.000         0.000
  Initial Stored Volume ....         0.303         3.031
  Final Stored Volume ......         0.321         3.206
  Continuity Error (%) .....        -0.440
  
  
  *************************
  Highest Continuity Errors
  *************************
  Node YS02001583 (-13.88%)
  Node YS02001884 (5.11%)
  Node WS02006256 (-3.34%)
  Node HS02004842 (1.80%)
  Node YS02001774 (1.64%)
  
  
  ***************************
  Time-Step Critical Elements
  ***************************
  Link WS02006280WS02006229 (50.91%)
  Link WS02006252WS02006251 (17.29%)
  Link WS02006238WS02006235 (9.14%)
  Link WS02004404WS02004405 (5.10%)
  Link YS02001791YS02001793 (3.50%)
  
  
  ********************************
  Highest Flow Instability Indexes
  ********************************
  Link WS02006113WS02006111 (22)
  Link WS02006256WS02006235 (20)
  Link WS02006238WS02006235 (19)
  Link WS02006229WS02006228 (18)
  Link WS02004404WS02004405 (17)
  
  
  *************************
  Routing Time Step Summary
  *************************
  Minimum Time Step           :     0.01 sec
  Average Time Step           :     2.54 sec
  Maximum Time Step           :     6.46 sec
  Percent in Steady State     :    -0.00
  Average Iterations per Step :     3.20
  Percent Not Converging      :    10.70
  
  
  ***************************
  Subcatchment Runoff Summary
  ***************************
  
  ------------------------------------------------------------------------------------------------------------------------------
                            Total      Total      Total      Total     Imperv       Perv      Total       Total     Peak  Runoff
                           Precip      Runon       Evap      Infil     Runoff     Runoff     Runoff      Runoff   Runoff   Coeff
  Subcatchment                 mm         mm         mm         mm         mm         mm         mm    10^6 ltr      LPS
  ------------------------------------------------------------------------------------------------------------------------------
  sub0                      42.77       0.00       0.00       0.97      38.53       2.02      40.55        0.03    23.51   0.948
  sub1                      42.77       0.00       0.00       1.45      33.01       2.77      35.78        0.24   133.46   0.837
  sub10                     42.77       0.00       0.00       0.93      30.93       1.85      32.79        0.36   214.92   0.767
  sub11                     42.77       0.00       0.00       0.85      28.75       1.73      30.49        0.35   229.21   0.713
  sub12                     42.77       0.00       0.00       1.49      29.24       3.02      32.26        0.28   195.49   0.754
  sub14                     42.77       0.00       0.00       0.92      27.23       1.86      29.09        0.28   175.07   0.680
  sub15                     42.77       0.00       0.00       4.08      24.48       6.76      31.24        0.54   283.35   0.730
  sub16                     42.77       0.00       0.00       4.37      23.88       7.78      31.66        0.33   193.80   0.740
  sub17                     42.77       0.00       0.00       4.67      26.36       8.15      34.50        0.30   167.66   0.807
  sub2                      42.77       0.00       0.00       6.34      24.12       8.32      32.44        0.30   129.17   0.758
  sub22                     42.77       0.00       0.00       7.17      22.85      10.64      33.49        2.12  1012.74   0.783
  sub23                     42.77       0.00       0.00       5.43      23.53       8.85      32.38        1.54   809.75   0.757
  sub3                      42.77       0.00       0.00       6.74      23.88       7.78      31.66        0.71   273.57   0.740
  sub4                      42.77       0.00       0.00       1.55      32.47       2.61      35.08        0.73   300.59   0.820
  sub5                      42.77       0.00       0.00       0.83      31.93       1.66      33.59        0.38   220.50   0.785
  sub60                     42.77       0.00       0.00       1.32      28.12       2.64      30.76        0.40   261.93   0.719
  sub61                     42.77       0.00       0.00       2.02      28.10       3.92      32.02        0.59   374.48   0.749
  sub62                     42.77       0.00       0.00       0.90      29.95       1.79      31.74        0.87   512.61   0.742
  sub63                     42.77       0.00       0.00       3.66      24.07       6.50      30.56        0.69   399.49   0.715
  sub64                     42.77       0.00       0.00       1.76      27.39       3.24      30.63        0.74   400.45   0.716
  sub65                     42.77       0.00       0.00       1.62      29.56       2.95      32.52        0.90   463.91   0.760
  sub66                     42.77       0.00       0.00       4.18      23.25       5.65      28.91        1.35   563.39   0.676
  sub67                     42.77       0.00       0.00       0.90      30.71       1.86      32.57        0.61   418.51   0.762
  sub68                     42.77       0.00       0.00       1.55      27.12       3.01      30.13        0.83   507.98   0.704
  sub69                     42.77       0.00       0.00       1.38      28.73       3.71      32.44        1.20   615.85   0.758
  sub7                      42.77       0.00       0.00       0.98      29.19       2.00      31.19        0.11    69.42   0.729
  sub70                     42.77       0.00       0.00       4.50      23.01       7.40      30.41        0.88   330.74   0.711
  sub71                     42.77       0.00       0.00       0.83      27.20       1.62      28.82        0.75   412.65   0.674
  sub72                     42.77       0.00       0.00       0.79      29.37       1.50      30.87        0.42   205.55   0.722
  sub8                      42.77       0.00       0.00       0.96      28.36       1.94      30.30        0.19   123.38   0.708
  sub9                      42.77       0.00       0.00       0.93      27.50       1.88      29.37        0.14    89.82   0.687
  

  ***********************
  LID Performance Summary
  ***********************

  --------------------------------------------------------------------------------------------------------------------
                                         Total      Evap     Infil   Surface    Drain    Initial     Final  Continuity
                                        Inflow      Loss      Loss   Outflow   Outflow   Storage   Storage       Error
  Subcatchment      LID Control             mm        mm        mm        mm        mm        mm        mm           %
  --------------------------------------------------------------------------------------------------------------------
  sub1              GreenRoof            42.77      0.00      0.00      0.00      0.00      7.05     49.86       -0.07
  sub10             GreenRoof            42.77      0.00      0.00      0.00      0.00      7.05     49.86       -0.07
  sub11             GreenRoof            42.77      0.00      0.00      0.00      0.00      7.05     49.86       -0.07
  sub12             GreenRoof            42.77      0.00      0.00      0.00      0.00      7.05     49.86       -0.07
  sub14             GreenRoof            42.77      0.00      0.00      0.00      0.00      7.05     49.86       -0.07
  sub15             GreenRoof            42.77      0.00      0.00      0.00      0.00      7.05     49.86       -0.07
  sub16             GreenRoof            42.77      0.00      0.00      0.00      0.00      7.05     49.86       -0.07
  sub17             GreenRoof            42.77      0.00      0.00      0.00      0.00      7.05     49.86       -0.07
  sub2              GreenRoof            42.77      0.00      0.00      0.00      0.00      7.05     49.86       -0.07
  sub22             GreenRoof            42.77      0.00      0.00      0.00      0.00      7.05     49.86       -0.07
  sub23             GreenRoof            42.77      0.00      0.00      0.00      0.00      7.05     49.86       -0.07
  sub3              GreenRoof            42.77      0.00      0.00      0.00      0.00      7.05     49.86       -0.07
  sub4              GreenRoof            42.77      0.00      0.00      0.00      0.00      7.05     49.86       -0.07
  sub5              GreenRoof            42.77      0.00      0.00      0.00      0.00      7.05     49.86       -0.07
  sub60             GreenRoof            42.77      0.00      0.00      0.00      0.00      7.05     49.86       -0.07
  sub61             GreenRoof            42.77      0.00      0.00      0.00      0.00      7.05     49.86       -0.07
  sub62             GreenRoof            42.77      0.00      0.00      0.00      0.00      7.05     49.86       -0.07
  sub63             GreenRoof            42.77      0.00      0.00      0.00      0.00      7.05     49.86       -0.07
  sub64             GreenRoof            42.77      0.00      0.00      0.00      0.00      7.05     49.86       -0.07
  sub65             GreenRoof            42.77      0.00      0.00      0.00      0.00      7.05     49.86       -0.07
  sub66             GreenRoof            42.77      0.00      0.00      0.00      0.00      7.05     49.86       -0.07
  sub67             GreenRoof            42.77      0.00      0.00      0.00      0.00      7.05     49.86       -0.07
  sub68             GreenRoof            42.77      0.00      0.00      0.00      0.00      7.05     49.86       -0.07
  sub69             GreenRoof            42.77      0.00      0.00      0.00      0.00      7.05     49.86       -0.07
  sub7              GreenRoof            42.77      0.00      0.00      0.00      0.00      7.05     49.86       -0.07
  sub70             GreenRoof            42.77      0.00      0.00      0.00      0.00      7.05     49.86       -0.07
  sub71             GreenRoof            42.77      0.00      0.00      0.00      0.00      7.05     49.86       -0.07
  sub72             GreenRoof            42.77      0.00      0.00      0.00      0.00      7.05     49.86       -0.07
  sub8              GreenRoof            42.77      0.00      0.00      0.00      0.00      7.05     49.86       -0.07
  sub9              GreenRoof            42.77      0.00      0.00      0.00      0.00      7.05     49.86       -0.07
  
  ******************
  Node Depth Summary
  ******************
  
  ---------------------------------------------------------------------------------
                                 Average  Maximum  Maximum  Time of Max    Reported
                                   Depth    Depth      HGL   Occurrence   Max Depth
  Node                 Type       Meters   Meters   Meters  days hr:min      Meters
  ---------------------------------------------------------------------------------
  HS02004478           JUNCTION     0.20     1.60    10.83     0  01:43        1.60
  HS02004479           JUNCTION     0.28     1.78    10.98     0  01:43        1.78
  HS02004480           JUNCTION     0.25     1.72    10.96     0  01:43        1.72
  HS02004770           JUNCTION     0.25     1.42    11.25     0  01:37        1.42
  HS02004777           JUNCTION     0.28     1.48    11.28     0  01:37        1.44
  HS02004785           JUNCTION     0.17     1.49    11.39     0  01:37        1.32
  HS02004788           JUNCTION     0.14     1.42    11.32     0  01:37        1.31
  HS02004792           JUNCTION     0.19     1.60    11.12     0  01:37        1.60
  HS02004799           JUNCTION     0.31     1.76    10.97     0  01:40        1.76
  HS02004802           JUNCTION     0.29     1.73    10.85     0  01:40        1.71
  HS02004807           JUNCTION     0.26     1.92    11.09     0  01:40        1.65
  HS02004817           JUNCTION     0.56     2.44    11.29     0  01:40        2.03
  HS02004824           JUNCTION     0.13     2.01    11.41     0  01:40        1.51
  HS02004830           JUNCTION     0.13     2.03    11.50     0  01:40        1.47
  HS02004837           JUNCTION     0.11     2.01    11.59     0  01:40        1.38
  HS02004842           JUNCTION     0.39     2.22    11.49     0  01:40        1.68
  HS02004848           JUNCTION     0.08     2.07    11.67     0  01:40        1.34
  HS02004852           JUNCTION     0.09     2.12    11.63     0  01:40        1.38
  HS02004856           JUNCTION     0.15     2.07    11.50     0  01:40        1.41
  HS02004862           JUNCTION     0.10     2.00    11.38     0  01:40        1.38
  HS02004870           JUNCTION     0.10     1.97    11.25     0  01:40        1.38
  HS02004876           JUNCTION     0.15     2.06    11.09     0  01:40        1.51
  HS02004881           JUNCTION     0.09     2.15    11.18     0  01:40        1.34
  HS02004901           JUNCTION     0.26     1.42    11.24     0  01:37        1.42
  WS02001211           JUNCTION     0.62     0.86     5.70     0  01:45        0.86
  WS02001212           JUNCTION     0.37     0.64     5.70     0  01:44        0.62
  WS02001213           JUNCTION     0.58     0.97     5.73     0  01:43        0.96
  WS02003059           JUNCTION     0.64     0.97     5.65     0  01:46        0.93
  WS02003060           JUNCTION     0.37     0.68     5.62     0  01:46        0.68
  WS02003066           JUNCTION     0.22     0.45     6.01     0  01:39        0.45
  WS02003067           JUNCTION     0.53     0.94     6.26     0  01:38        0.93
  WS02003069           JUNCTION     0.42     0.77     5.35     0  01:47        0.77
  WS02003072           JUNCTION     0.47     0.81     5.18     0  01:46        0.81
  WS02003073           JUNCTION     0.29     0.51     4.58     0  01:47        0.51
  WS02004138           JUNCTION     0.13     0.14     7.39     0  00:29        0.14
  WS02004139           JUNCTION     0.56     0.78     5.69     0  01:42        0.76
  WS02004401           JUNCTION     0.73     2.66     8.66     0  01:36        2.46
  WS02004402           JUNCTION     0.75     2.67     8.63     0  01:36        2.39
  WS02004403           JUNCTION     0.75     2.59     8.52     0  01:36        2.27
  WS02004404           JUNCTION     0.81     2.40     8.25     0  01:36        2.23
  WS02004405           JUNCTION     0.80     2.48     8.33     0  01:36        2.11
  WS02004406           JUNCTION     0.79     3.02     8.85     0  01:36        1.75
  WS02004407           JUNCTION     0.24     0.86     7.18     0  01:40        0.86
  WS02004409           JUNCTION     0.50     1.34     7.11     0  01:40        1.33
  WS02004410           JUNCTION     0.51     1.33     7.05     0  01:38        1.25
  WS02004411           JUNCTION     0.52     1.34     7.02     0  01:38        1.17
  WS02004412           JUNCTION     0.52     1.22     6.86     0  01:38        1.08
  WS02004413           JUNCTION     0.66     1.63     7.10     0  01:38        1.13
  WS02006109           JUNCTION     0.93     2.64     9.26     0  01:36        2.64
  WS02006110           JUNCTION     0.87     2.76     9.34     0  01:36        2.59
  WS02006111           JUNCTION     0.40     2.35     9.06     0  01:36        2.14
  WS02006112           JUNCTION     0.93     2.68     8.56     0  01:36        2.68
  WS02006113           JUNCTION     0.46     2.72     9.62     0  01:36        2.16
  WS02006115           JUNCTION     0.65     2.82     8.96     0  01:36        2.51
  WS02006116           JUNCTION     0.72     2.91     8.95     0  01:36        2.54
  WS02006228           JUNCTION     0.98     3.02     9.67     0  01:43        2.99
  WS02006229           JUNCTION     0.99     3.21     9.91     0  01:43        3.19
  WS02006230           JUNCTION     0.92     2.65     9.39     0  01:34        2.65
  WS02006231           JUNCTION     0.66     2.24     9.36     0  01:34        2.24
  WS02006232           JUNCTION     0.75     2.18     9.22     0  01:34        2.18
  WS02006234           JUNCTION     0.64     1.96     9.12     0  01:34        1.96
  WS02006235           JUNCTION     0.65     2.00     9.16     0  01:34        1.93
  WS02006238           JUNCTION     0.67     2.12     9.26     0  01:34        1.93
  WS02006239           JUNCTION     0.61     2.03     9.24     0  01:34        1.79
  WS02006240           JUNCTION     0.56     2.10     9.39     0  01:34        1.63
  WS02006242           JUNCTION     0.59     1.55     8.82     0  01:34        1.55
  WS02006243           JUNCTION     0.49     1.41     8.83     0  01:34        1.37
  WS02006245           JUNCTION     0.47     1.40     8.89     0  03:02        1.40
  WS02006247           JUNCTION     0.48     1.28     8.78     0  01:34        1.27
  WS02006248           JUNCTION     0.42     1.10     8.69     0  01:34        1.10
  WS02006249           JUNCTION     0.45     1.09     8.69     0  01:34        1.09
  WS02006251           JUNCTION     0.52     2.21     9.88     0  01:40        2.06
  WS02006252           JUNCTION     0.34     1.50     9.74     0  00:00        1.50
  WS02006253           JUNCTION     0.58     3.52    11.16     0  01:40        2.66
  WS02006256           JUNCTION     1.01     2.35     9.28     0  00:00        2.35
  WS02006280           JUNCTION     0.27     1.78    10.05     0  01:43        1.78
  WS02006284           JUNCTION     0.53     1.95    10.35     0  01:43        1.95
  WS02006287           JUNCTION     0.27     1.73    10.69     0  01:43        1.73
  WSF200               JUNCTION     0.21     0.56     5.79     0  01:38        0.56
  YS02001580           JUNCTION     0.06     1.05     9.59     0  01:38        0.85
  YS02001583           JUNCTION     0.09     1.14     9.64     0  01:38        0.81
  YS02001586           JUNCTION     0.16     1.13     9.30     0  01:38        1.13
  YS02001590           JUNCTION     0.25     1.40     9.26     0  01:38        1.38
  YS02001593           JUNCTION     0.18     1.46     9.32     0  01:37        1.35
  YS02001596           JUNCTION     0.24     1.80     9.22     0  01:37        1.80
  YS02001600           JUNCTION     0.31     1.87     9.00     0  01:37        1.87
  YS02001601           JUNCTION     0.50     2.06     8.90     0  01:37        2.06
  YS02001602           JUNCTION     0.41     1.87     8.77     0  01:38        1.87
  YS02001605           JUNCTION     0.38     1.78     8.68     0  01:38        1.77
  YS02001607           JUNCTION     0.37     1.68     8.53     0  01:38        1.64
  YS02001610           JUNCTION     0.42     1.68     8.48     0  01:38        1.68
  YS02001613           JUNCTION     0.38     1.70     8.54     0  01:38        1.70
  YS02001616           JUNCTION     0.31     1.61     8.52     0  01:38        1.61
  YS02001619           JUNCTION     0.29     1.61     8.54     0  01:39        1.61
  YS02001622           JUNCTION     0.27     1.62     8.52     0  01:39        1.62
  YS02001625           JUNCTION     0.53     1.78     8.38     0  01:38        1.78
  YS02001629           JUNCTION     0.39     1.85     8.40     0  01:38        1.85
  YS02001633           JUNCTION     0.46     1.95     8.40     0  01:39        1.95
  YS02001641           JUNCTION     0.44     1.67     8.10     0  01:43        1.63
  YS02001644           JUNCTION     0.43     1.59     8.02     0  01:43        1.56
  YS02001647           JUNCTION     0.21     1.25     7.86     0  01:43        1.23
  YS02001649           JUNCTION     0.24     1.35     7.74     0  01:46        1.30
  YS02001652           JUNCTION     0.13     1.27     7.87     0  01:46        1.12
  YS02001655           JUNCTION     0.09     0.89     7.74     0  01:43        0.89
  YS02001658           JUNCTION     0.06     0.57     7.71     0  01:43        0.51
  YS02001661           JUNCTION     0.12     0.34     7.74     0  01:39        0.34
  YS02001664           JUNCTION     0.05     0.24     8.16     0  01:39        0.24
  YS02001745           JUNCTION     0.04     0.21     7.73     0  01:39        0.21
  YS02001748           JUNCTION     0.05     0.47     7.54     0  01:44        0.46
  YS02001751           JUNCTION     0.06     0.67     7.55     0  01:44        0.60
  YS02001754           JUNCTION     0.10     0.92     7.53     0  01:43        0.90
  YS02001757           JUNCTION     0.24     1.27     7.53     0  01:44        1.23
  YS02001759           JUNCTION     0.18     1.20     7.56     0  01:44        1.15
  YS02001762           JUNCTION     0.18     1.17     7.57     0  01:44        1.14
  YS02001765           JUNCTION     0.16     1.13     7.58     0  01:42        1.11
  YS02001767           JUNCTION     0.16     1.12     7.61     0  01:42        1.10
  YS02001770           JUNCTION     0.18     1.16     7.65     0  01:42        1.12
  YS02001774           JUNCTION     0.24     1.20     7.62     0  01:42        1.18
  YS02001779           JUNCTION     0.07     0.94     7.62     0  01:42        0.91
  YS02001783           JUNCTION     0.21     1.29     7.43     0  01:42        1.29
  YS02001784           JUNCTION     0.23     1.14     7.20     0  01:42        1.14
  YS02001786           JUNCTION     0.20     0.88     6.91     0  01:42        0.86
  YS02001788           JUNCTION     0.14     0.61     6.59     0  01:42        0.61
  YS02001790           JUNCTION     0.17     0.72     6.36     0  01:43        0.72
  YS02001791           JUNCTION     0.11     0.43     5.90     0  01:45        0.43
  YS02001793           JUNCTION     0.06     0.21     5.04     0  01:46        0.21
  YS02001882           JUNCTION     0.26     1.70     8.41     0  01:42        1.57
  YS02001884           JUNCTION     0.35     1.78     8.40     0  01:42        1.67
  YS02001887           JUNCTION     0.42     1.83     8.37     0  01:42        1.75
  YS02001890           JUNCTION     0.45     1.81     8.32     0  01:42        1.77
  YS02001895           JUNCTION     0.23     1.58     8.33     0  01:42        1.53
  YS02001898           JUNCTION     0.24     1.59     8.33     0  01:42        1.53
  YS02001901           JUNCTION     0.35     1.70     8.31     0  01:42        1.66
  YS02001904           JUNCTION     0.33     1.65     8.28     0  01:42        1.63
  YS02001907           JUNCTION     0.63     1.96     8.25     0  01:42        1.96
  YS02001910           JUNCTION     0.44     1.85     8.36     0  01:42        1.75
  YS02001915           JUNCTION     0.26     1.72     8.44     0  01:42        1.58
  YS02001918           JUNCTION     0.12     1.50     8.56     0  01:42        1.22
  YS02001920           JUNCTION     0.20     1.58     8.59     0  01:42        1.29
  YS02001923           JUNCTION     0.09     1.42     8.68     0  01:42        1.21
  YS02001926           JUNCTION     0.13     1.45     8.90     0  01:42        1.06
  YS02001929           JUNCTION     0.06     0.89     8.58     0  01:42        0.86
  YS02006553           JUNCTION     0.64     1.96     8.25     0  01:42        1.95
  YS02006556           JUNCTION     0.61     1.93     8.24     0  01:43        1.90
  YS02006558           JUNCTION     0.66     1.96     8.23     0  01:42        1.96
  YS02006561           JUNCTION     0.13     0.98     7.64     0  01:42        0.98
  YS02163301           JUNCTION     0.41     1.89     8.40     0  01:39        1.89
  YS02163601           JUNCTION     0.50     1.88     8.28     0  01:39        1.88
  YS02164001           JUNCTION     0.43     1.71     8.17     0  01:39        1.71
  YSB1154              JUNCTION     0.41     1.87    10.93     0  01:43        1.81
  YSB1171              JUNCTION     0.55     1.95    10.85     0  01:40        1.95
  YSB1174              JUNCTION     0.36     1.77    10.88     0  01:40        1.75
  YSB6556              JUNCTION     0.31     1.73    10.90     0  01:40        1.69
  CC-1                 OUTFALL      0.00     0.00     0.00     0  00:00        0.00
  CC-2                 OUTFALL      0.00     0.00     0.00     0  00:00        0.00
  JK-1                 OUTFALL      0.00     0.00     0.00     0  00:00        0.00
  JK-2                 OUTFALL      0.00     0.00     0.00     0  00:00        0.00
  WSC                  OUTFALL      0.28     0.51     1.18     0  01:47        0.51
  CC-storage           STORAGE      0.64     1.21     6.71     0  02:15        1.21
  JK-storage           STORAGE      1.36     4.20     5.00     0  01:59        4.18
  XR-storage           STORAGE      7.79     9.26     7.26     0  08:00        9.26
  
  
  *******************
  Node Inflow Summary
  *******************
  
  -------------------------------------------------------------------------------------------------
                                  Maximum  Maximum                  Lateral       Total        Flow
                                  Lateral    Total  Time of Max      Inflow      Inflow     Balance
                                   Inflow   Inflow   Occurrence      Volume      Volume       Error
  Node                 Type           LPS      LPS  days hr:min    10^6 ltr    10^6 ltr     Percent
  -------------------------------------------------------------------------------------------------
  HS02004478           JUNCTION      0.00  2200.16     0  01:38           0        6.35      -0.010
  HS02004479           JUNCTION      0.00   424.87     0  01:38           0        0.67       0.118
  HS02004480           JUNCTION      0.00  2198.93     0  01:38           0        5.09       0.048
  HS02004770           JUNCTION    809.75   893.34     0  01:37        1.54        1.77       0.171
  HS02004777           JUNCTION      0.03   906.56     0  01:37    0.000864        1.56       0.340
  HS02004785           JUNCTION      0.15   911.52     0  01:37     0.00432        1.56       0.028
  HS02004788           JUNCTION    285.02   959.01     0  01:37       0.585        2.14       0.013
  HS02004792           JUNCTION   1013.02  1690.98     0  01:39        2.12        4.26       0.004
  HS02004799           JUNCTION    175.07  1800.89     0  01:38       0.277        4.43       0.067
  HS02004802           JUNCTION      0.00   354.28     0  01:42           0         1.3       0.286
  HS02004807           JUNCTION    229.21   505.86     0  01:38       0.354        1.35       0.297
  HS02004817           JUNCTION      0.60   507.32     0  01:38      0.0173        1.06       1.528
  HS02004824           JUNCTION    300.64   747.71     0  01:38       0.733        1.27       0.021
  HS02004830           JUNCTION      0.15   750.13     0  01:38     0.00432       0.764       0.117
  HS02004837           JUNCTION    221.27  1016.66     0  01:38       0.544       0.992       0.084
  HS02004842           JUNCTION      0.00   924.07     0  01:38           0       0.679       1.835
  HS02004848           JUNCTION    273.57  1156.21     0  01:38       0.713        1.23      -0.018
  HS02004852           JUNCTION      0.00  1106.08     0  01:39           0        1.08       0.019
  HS02004856           JUNCTION     89.82  1121.69     0  01:40       0.141        1.22       0.061
  HS02004862           JUNCTION    129.37  1244.69     0  01:40       0.308        1.52       0.002
  HS02004870           JUNCTION    123.38  1363.36     0  01:39       0.194        1.72       0.008
  HS02004876           JUNCTION    133.46  1522.73     0  01:40       0.238        1.96       0.037
  HS02004881           JUNCTION     69.42  1471.50     0  01:40       0.105        2.06      -0.039
  HS02004901           JUNCTION    193.80   401.97     0  01:45       0.331       0.427       0.420
  WS02001211           JUNCTION      7.35   369.81     0  01:42       0.212        5.45       0.608
  WS02001212           JUNCTION      0.00   472.24     0  01:40           0        5.43       0.289
  WS02001213           JUNCTION      0.00   420.70     0  01:40           0        5.42       0.320
  WS02003059           JUNCTION      0.00   487.10     0  01:39           0        5.43       0.588
  WS02003060           JUNCTION     16.53  1527.58     0  01:46       0.476        12.7       0.116
  WS02003066           JUNCTION      0.00  1272.78     0  01:40           0        6.82       0.022
  WS02003067           JUNCTION      0.00  1257.52     0  01:41           0        6.82       0.064
  WS02003069           JUNCTION      0.32  1486.23     0  01:47     0.00922        12.6       0.123
  WS02003072           JUNCTION      0.00  1477.76     0  01:45           0        12.6       0.166
  WS02003073           JUNCTION      1.82  1483.70     0  01:46      0.0524        12.6       0.170
  WS02004138           JUNCTION      0.00   380.00     0  00:00           0        5.25       0.051
  WS02004139           JUNCTION      0.32   321.07     0  01:41     0.00924        5.26       0.509
  WS02004401           JUNCTION      0.00  1294.21     0  01:38           0        6.92       0.143
  WS02004402           JUNCTION      0.00  1294.44     0  01:38           0        6.91       0.142
  WS02004403           JUNCTION      0.00  1296.84     0  01:38           0         6.9       0.140
  WS02004404           JUNCTION      0.16  1301.75     0  01:38     0.00467         6.9       0.132
  WS02004405           JUNCTION      0.04  1308.30     0  01:38      0.0011        6.89       0.171
  WS02004406           JUNCTION      0.00  1340.65     0  01:36           0        6.88       0.304
  WS02004407           JUNCTION      0.00  1339.75     0  01:36           0        6.86       0.023
  WS02004409           JUNCTION      0.00  1354.23     0  01:37           0        6.85       0.044
  WS02004410           JUNCTION      0.00  1356.87     0  01:37           0        6.85       0.056
  WS02004411           JUNCTION      0.00  1312.72     0  01:38           0        6.85       0.080
  WS02004412           JUNCTION      0.00  1257.56     0  01:41           0        6.84       0.113
  WS02004413           JUNCTION      0.00  1257.62     0  01:41           0        6.83       0.190
  WS02006109           JUNCTION      1.23  1223.18     0  01:43      0.0354        6.72       0.134
  WS02006110           JUNCTION      0.00  1208.21     0  01:35           0        6.66       0.121
  WS02006111           JUNCTION      0.00  1202.68     0  01:36           0        6.65       0.002
  WS02006112           JUNCTION    167.66  1295.71     0  01:38       0.296        6.95       0.267
  WS02006113           JUNCTION      0.00  1208.16     0  01:35           0        6.65       0.035
  WS02006115           JUNCTION      0.00  1295.30     0  01:38           0        6.93       0.095
  WS02006116           JUNCTION      0.00  1294.81     0  01:38           0        6.92       0.014
  WS02006228           JUNCTION      0.00  1220.62     0  01:43           0        6.69       0.067
  WS02006229           JUNCTION      0.00  2166.36     0  01:41           0        8.08       0.110
  WS02006230           JUNCTION     10.28   961.21     0  01:43       0.296        3.16       0.222
  WS02006231           JUNCTION      0.00   453.26     0  01:41           0        2.38      -0.082
  WS02006232           JUNCTION      0.00   453.79     0  01:43           0        2.36       0.335
  WS02006234           JUNCTION      0.00   453.04     0  01:41           0        2.34      -0.499
  WS02006235           JUNCTION      0.00   452.40     0  03:25           0        2.48       0.595
  WS02006238           JUNCTION      0.00   415.63     0  01:44           0        2.15      -0.430
  WS02006239           JUNCTION      0.00   414.98     0  01:44           0        2.07      -0.306
  WS02006240           JUNCTION      0.00   504.13     0  01:34           0        2.04      -0.040
  WS02006242           JUNCTION      0.00   500.01     0  01:34           0        2.03       0.043
  WS02006243           JUNCTION      0.00   514.91     0  01:34           0        1.77      -0.280
  WS02006245           JUNCTION      0.00   522.59     0  01:34           0        1.79       0.862
  WS02006247           JUNCTION      0.00   521.38     0  01:34           0        1.78      -0.091
  WS02006248           JUNCTION      0.00   523.05     0  01:33           0        1.99      -0.218
  WS02006249           JUNCTION      0.00  1331.59     0  01:40           0        4.19       0.267
  WS02006251           JUNCTION      0.08  1357.30     0  01:40     0.00222        4.25      -0.015
  WS02006252           JUNCTION      0.00   400.00     0  00:00           0        2.11      -0.653
  WS02006253           JUNCTION     23.51  1354.31     0  01:40      0.0328        2.15       0.062
  WS02006256           JUNCTION      0.00   300.00     0  00:00           0       0.987      -3.231
  WS02006280           JUNCTION      0.00  2163.74     0  01:41           0        6.33       0.011
  WS02006284           JUNCTION      0.10  2162.97     0  01:41     0.00275        6.33       0.002
  WS02006287           JUNCTION      0.00  2162.32     0  01:41           0        6.32       0.010
  WSF200               JUNCTION      0.00  1268.15     0  01:41           0        6.82       0.011
  YS02001580           JUNCTION      0.00   188.95     0  01:38           0     0.00439      -4.411
  YS02001583           JUNCTION      0.00   240.78     0  01:38           0      0.0143     -12.189
  YS02001586           JUNCTION    330.74   331.43     0  01:43       0.878        0.89       0.198
  YS02001590           JUNCTION      0.00   318.10     0  01:43           0       0.872      -0.048
  YS02001593           JUNCTION      0.00   318.03     0  01:44           0       0.872       0.017
  YS02001596           JUNCTION      0.00   317.88     0  01:43           0       0.872      -0.014
  YS02001600           JUNCTION      0.00   318.77     0  01:43           0       0.872      -0.002
  YS02001601           JUNCTION    615.85   932.68     0  01:41         1.2        2.07       0.036
  YS02001602           JUNCTION      0.00   591.38     0  01:38           0        1.71       0.014
  YS02001605           JUNCTION      0.00   591.52     0  01:38           0        1.67       0.008
  YS02001607           JUNCTION      0.00   591.21     0  01:38           0        1.67       0.092
  YS02001610           JUNCTION      0.00   566.43     0  01:38           0        1.67       0.136
  YS02001613           JUNCTION      0.00   542.19     0  01:38           0        1.65       0.085
  YS02001616           JUNCTION      0.00   512.71     0  01:57           0        1.65       0.024
  YS02001619           JUNCTION    563.39   919.80     0  01:40        1.35        2.99      -0.009
  YS02001622           JUNCTION      0.00   919.58     0  01:40           0        2.99       0.005
  YS02001625           JUNCTION      0.00   919.76     0  01:40           0        2.99       0.299
  YS02001629           JUNCTION      0.00   920.36     0  01:40           0        2.98       0.024
  YS02001633           JUNCTION    464.11  1380.86     0  01:40       0.901        3.88       0.087
  YS02001641           JUNCTION      0.00  1383.70     0  01:40           0        3.88       0.070
  YS02001644           JUNCTION    400.48  1783.85     0  01:40       0.737        4.61       0.071
  YS02001647           JUNCTION      0.00  1783.62     0  01:40           0         4.6       0.006
  YS02001649           JUNCTION      0.00  2167.80     0  01:40           0         5.3       0.004
  YS02001652           JUNCTION      0.00   446.79     0  01:40           0       0.696      -0.327
  YS02001655           JUNCTION      0.15   487.45     0  01:44     0.00443       0.698       0.220
  YS02001658           JUNCTION      0.00   400.12     0  01:39           0       0.693      -0.002
  YS02001661           JUNCTION      0.00   399.40     0  01:39           0       0.694       0.044
  YS02001664           JUNCTION    399.49   399.49     0  01:39       0.694       0.694      -0.006
  YS02001745           JUNCTION    261.93   261.93     0  01:39       0.404       0.404       0.115
  YS02001748           JUNCTION      0.04   261.73     0  01:39      0.0013       0.405      -0.107
  YS02001751           JUNCTION      0.01   315.83     0  01:44    0.000317       0.406       0.355
  YS02001754           JUNCTION      0.26   337.07     0  01:45     0.00749       0.412      -0.460
  YS02001757           JUNCTION      0.00  2862.28     0  01:41           0        7.19       0.092
  YS02001759           JUNCTION    374.52   830.25     0  01:43       0.589        1.48      -0.012
  YS02001762           JUNCTION      0.00   515.20     0  01:43           0       0.889       0.001
  YS02001765           JUNCTION      0.00   510.63     0  01:43           0       0.889       0.013
  YS02001767           JUNCTION      0.54   505.38     0  01:43      0.0154       0.889       0.008
  YS02001770           JUNCTION    512.76   512.76     0  01:40       0.874       0.917      -0.015
  YS02001774           JUNCTION      0.00   138.39     0  01:40           0       0.065       1.669
  YS02001779           JUNCTION      0.01    95.70     0  01:42    0.000144      0.0209      -0.393
  YS02001783           JUNCTION      0.00  1141.95     0  01:43           0        2.63       0.006
  YS02001784           JUNCTION      1.06  1142.10     0  01:43      0.0305        2.66       0.017
  YS02001786           JUNCTION      0.06  1142.04     0  01:43     0.00162        2.66       0.023
  YS02001788           JUNCTION      0.07  1145.17     0  01:43     0.00204        2.66       0.012
  YS02001790           JUNCTION      0.15  1143.84     0  01:42     0.00446        2.67       0.015
  YS02001791           JUNCTION      0.00  1270.79     0  01:43           0        2.67      -0.004
  YS02001793           JUNCTION      0.00  1192.87     0  01:46           0        2.67       0.009
  YS02001882           JUNCTION      0.00    61.59     0  01:39           0      0.0133       4.135
  YS02001884           JUNCTION      0.00    96.05     0  01:39           0      0.0493       5.381
  YS02001887           JUNCTION    418.96   418.96     0  01:38       0.619       0.652       0.690
  YS02001890           JUNCTION      0.00   415.02     0  01:39           0       0.611       0.830
  YS02001895           JUNCTION      0.00   416.87     0  01:40           0       0.606       0.284
  YS02001898           JUNCTION      0.00   424.62     0  01:40           0       0.604      -0.001
  YS02001901           JUNCTION      0.00   441.33     0  01:40           0       0.607       0.533
  YS02001904           JUNCTION      0.00   443.52     0  01:40           0       0.619       0.451
  YS02001907           JUNCTION      0.00  1103.57     0  01:43           0        1.88       0.950
  YS02001910           JUNCTION      0.00   779.95     0  01:43           0        1.26       0.561
  YS02001915           JUNCTION    412.67   780.23     0  01:43       0.754         1.3       0.103
  YS02001918           JUNCTION      0.00   398.17     0  01:43           0       0.558       0.027
  YS02001920           JUNCTION      2.87   396.93     0  01:43      0.0827       0.538       0.169
  YS02001923           JUNCTION      0.04   350.19     0  01:40     0.00109       0.448      -0.174
  YS02001926           JUNCTION      0.05   479.47     0  01:41      0.0015       0.434      -0.373
  YS02001929           JUNCTION    205.55   245.06     0  01:42       0.424       0.425      -0.011
  YS02006553           JUNCTION      0.00   781.60     0  01:49           0        1.83       0.653
  YS02006556           JUNCTION      0.00   781.72     0  01:49           0        1.84       0.435
  YS02006558           JUNCTION    508.86  1146.72     0  01:43       0.854        2.66       0.137
  YS02006561           JUNCTION      0.00  1145.84     0  01:43           0        2.63      -0.001
  YS02163301           JUNCTION      0.00   919.52     0  01:40           0        2.98       0.047
  YS02163601           JUNCTION      0.11  1381.17     0  01:40     0.00317        3.87       0.122
  YS02164001           JUNCTION      0.00  1381.71     0  01:40           0        3.87       0.058
  YSB1154              JUNCTION    220.50   220.50     0  01:40       0.381       0.381       0.381
  YSB1171              JUNCTION      0.00   419.38     0  01:38           0        0.67       0.947
  YSB1174              JUNCTION    195.49   195.49     0  01:38       0.282       0.282       0.453
  YSB6556              JUNCTION      0.00   220.76     0  01:40           0       0.382       0.322
  CC-1                 OUTFALL       0.00   683.00     0  00:00           0        2.93       0.000
  CC-2                 OUTFALL       0.00   683.00     0  00:00           0        3.01       0.000
  JK-1                 OUTFALL       0.00  1000.00     0  00:00           0        0.89       0.000
  JK-2                 OUTFALL       0.00  1000.00     0  00:00           0        0.92       0.000
  WSC                  OUTFALL       0.00  1482.35     0  01:47           0        12.6       0.000
  CC-storage           STORAGE       0.00  2846.33     0  01:44           0        9.41      -0.290
  JK-storage           STORAGE       0.00  1192.28     0  01:46           0        2.82      -0.613
  XR-storage           STORAGE     200.00   200.00     0  00:00        5.76        6.36       0.001
  
  
  **********************
  Node Surcharge Summary
  **********************
  
  Surcharging occurs when water rises above the top of the highest conduit.
  ---------------------------------------------------------------------
                                               Max. Height   Min. Depth
                                   Hours       Above Crown    Below Rim
  Node                 Type      Surcharged         Meters       Meters
  ---------------------------------------------------------------------
  HS02004478           JUNCTION        0.27          0.678        0.262
  HS02004479           JUNCTION        0.38          0.978        0.072
  HS02004480           JUNCTION        0.42          1.007        0.093
  HS02004770           JUNCTION        0.35          0.720        0.000
  HS02004777           JUNCTION        0.35          0.780        0.000
  HS02004785           JUNCTION        0.30          0.790        0.000
  HS02004788           JUNCTION        0.29          0.720        0.000
  HS02004792           JUNCTION        0.39          0.900        0.000
  HS02004799           JUNCTION        0.48          1.060        0.000
  HS02004802           JUNCTION        0.42          1.016        0.194
  HS02004807           JUNCTION        0.41          1.220        0.000
  HS02004817           JUNCTION        0.87          1.740        0.000
  HS02004824           JUNCTION        0.29          1.310        0.000
  HS02004830           JUNCTION        0.26          1.330        0.000
  HS02004837           JUNCTION        0.22          1.307        0.033
  HS02004842           JUNCTION        0.34          1.520        0.000
  HS02004848           JUNCTION        0.17          1.370        0.000
  HS02004852           JUNCTION        0.21          1.420        0.000
  HS02004856           JUNCTION        0.18          1.300        0.000
  HS02004862           JUNCTION        0.22          1.300        0.000
  HS02004870           JUNCTION        0.24          1.268        0.132
  HS02004876           JUNCTION        0.32          1.362        0.198
  HS02004881           JUNCTION        0.29          1.450        0.000
  HS02004901           JUNCTION        0.36          0.720        0.000
  WS02004401           JUNCTION        1.30          1.660        0.000
  WS02004402           JUNCTION        1.33          1.669        0.071
  WS02004403           JUNCTION        1.34          1.590        0.440
  WS02004404           JUNCTION        1.44          1.397        1.383
  WS02004405           JUNCTION        1.41          1.478        1.322
  WS02004406           JUNCTION        1.39          2.019        0.431
  WS02004409           JUNCTION        0.67          0.339        2.021
  WS02004410           JUNCTION        0.62          0.335        2.205
  WS02004411           JUNCTION        0.56          0.337        2.193
  WS02004412           JUNCTION        0.48          0.216        2.094
  WS02004413           JUNCTION        1.01          0.628        1.572
  WS02006109           JUNCTION        1.64          1.820        0.000
  WS02006110           JUNCTION        1.53          1.850        0.000
  WS02006111           JUNCTION        0.89          1.542        0.328
  WS02006112           JUNCTION        1.58          1.680        0.000
  WS02006113           JUNCTION        0.92          1.924        0.006
  WS02006115           JUNCTION        1.19          1.811        0.439
  WS02006116           JUNCTION        1.21          1.855        0.435
  WS02006228           JUNCTION        1.64          2.191        0.009
  WS02006229           JUNCTION        0.63          1.032        0.038
  WS02006230           JUNCTION        1.40          1.570        0.000
  WS02006231           JUNCTION        1.42          1.530        0.000
  WS02006232           JUNCTION        1.55          1.480        0.000
  WS02006234           JUNCTION        1.44          1.240        0.000
  WS02006235           JUNCTION        1.46          1.290        0.000
  WS02006238           JUNCTION        1.47          1.397        0.033
  WS02006239           JUNCTION        1.40          1.290        0.000
  WS02006240           JUNCTION        1.38          1.390        0.000
  WS02006242           JUNCTION        1.40          0.820        0.000
  WS02006243           JUNCTION        1.37          0.704        0.066
  WS02006245           JUNCTION        1.36          0.691        0.159
  WS02006247           JUNCTION        1.37          0.574        0.186
  WS02006248           JUNCTION        1.34          0.380        0.000
  WS02006249           JUNCTION        1.37          0.390        0.000
  WS02006251           JUNCTION        1.16          1.180        0.000
  WS02006252           JUNCTION        1.48          1.100        0.000
  WS02006253           JUNCTION        1.17          2.480        0.000
  WS02006256           JUNCTION        6.50          2.050        0.000
  WS02006280           JUNCTION        0.49          0.734        0.046
  WS02006284           JUNCTION        0.43          0.674        0.126
  WS02006287           JUNCTION        0.35          0.733        0.157
  YS02001580           JUNCTION        0.26          0.450        0.000
  YS02001583           JUNCTION        0.27          0.500        0.000
  YS02001586           JUNCTION        0.40          0.510        0.000
  YS02001590           JUNCTION        0.46          0.750        0.000
  YS02001593           JUNCTION        0.46          0.840        0.000
  YS02001596           JUNCTION        0.54          1.070        0.000
  YS02001600           JUNCTION        0.66          1.190        0.000
  YS02001601           JUNCTION        1.00          1.440        0.000
  YS02001602           JUNCTION        0.87          1.270        0.000
  YS02001605           JUNCTION        0.83          1.180        0.000
  YS02001607           JUNCTION        0.39          0.680        0.000
  YS02001610           JUNCTION        0.41          0.680        0.000
  YS02001613           JUNCTION        0.38          0.700        0.000
  YS02001616           JUNCTION        0.34          0.610        0.000
  YS02001619           JUNCTION        0.33          0.610        0.000
  YS02001622           JUNCTION        0.32          0.620        0.000
  YS02001625           JUNCTION        0.50          0.780        0.000
  YS02001629           JUNCTION        0.24          0.470        0.000
  YS02001633           JUNCTION        0.50          0.928        0.132
  YS02001641           JUNCTION        0.41          0.666        0.434
  YS02001644           JUNCTION        0.36          0.589        0.331
  YS02001647           JUNCTION        0.14          0.255        0.645
  YS02001649           JUNCTION        0.20          0.347        0.703
  YS02001652           JUNCTION        0.04          0.244        0.886
  YS02001757           JUNCTION        0.17          0.270        0.940
  YS02001759           JUNCTION        0.12          0.198        1.012
  YS02001762           JUNCTION        0.10          0.171        0.979
  YS02001765           JUNCTION        0.07          0.134        0.966
  YS02001767           JUNCTION        0.06          0.120        0.910
  YS02001770           JUNCTION        0.04          0.127        0.793
  YS02001774           JUNCTION        0.11          0.199        0.851
  YS02001783           JUNCTION        0.27          0.488        1.112
  YS02001784           JUNCTION        0.25          0.336        1.154
  YS02001786           JUNCTION        0.15          0.084        1.346
  YS02001882           JUNCTION        0.22          0.696        0.134
  YS02001884           JUNCTION        0.23          0.722        0.148
  YS02001887           JUNCTION        0.26          0.782        0.168
  YS02001890           JUNCTION        0.28          0.760        0.000
  YS02001895           JUNCTION        0.21          0.583        0.167
  YS02001898           JUNCTION        0.21          0.563        0.177
  YS02001901           JUNCTION        0.25          0.699        0.171
  YS02001904           JUNCTION        0.24          0.652        0.198
  YS02001907           JUNCTION        0.43          0.950        0.000
  YS02001910           JUNCTION        0.30          0.852        0.248
  YS02001915           JUNCTION        0.22          0.723        0.277
  YS02001918           JUNCTION        0.13          0.497        0.313
  YS02001920           JUNCTION        0.15          0.582        0.558
  YS02001923           JUNCTION        0.01          0.206        0.614
  YS02001926           JUNCTION        0.01          0.451        0.449
  YS02006553           JUNCTION        0.44          0.961        0.229
  YS02006556           JUNCTION        0.36          0.887        0.463
  YS02006558           JUNCTION        0.35          0.858        0.542
  YS02006561           JUNCTION        0.08          0.185        0.965
  YS02163301           JUNCTION        0.49          0.888        0.142
  YS02163601           JUNCTION        0.53          0.881        0.199
  YS02164001           JUNCTION        0.42          0.713        0.387
  YSB1154              JUNCTION        0.58          1.170        0.230
  YSB1171              JUNCTION        0.58          1.100        0.000
  YSB1174              JUNCTION        0.50          1.068        0.182
  YSB6556              JUNCTION        0.46          1.030        0.070
  
  
  *********************
  Node Flooding Summary
  *********************
  
  Flooding refers to all water that overflows a node, whether it ponds or not.
  --------------------------------------------------------------------------
                                                             Total   Maximum
                                 Maximum   Time of Max       Flood    Ponded
                        Hours       Rate    Occurrence      Volume     Depth
  Node                 Flooded       LPS   days hr:min    10^6 ltr    Meters
  --------------------------------------------------------------------------
  HS02004770              0.14    412.45      0  01:39       0.110     0.000
  HS02004777              0.01     80.97      0  01:37       0.001     0.000
  HS02004785              0.01     78.34      0  01:37       0.000     0.000
  HS02004788              0.01    548.94      0  01:37       0.007     0.000
  HS02004792              0.15    389.74      0  01:41       0.105     0.000
  HS02004799              0.01     35.10      0  01:40       0.000     0.000
  HS02004807              0.01     20.87      0  01:40       0.000     0.000
  HS02004817              0.01     16.88      0  01:40       0.000     0.000
  HS02004824              0.01     21.96      0  01:40       0.000     0.000
  HS02004830              0.01     18.89      0  01:40       0.000     0.000
  HS02004842              0.01    104.60      0  01:40       0.001     0.000
  HS02004848              0.01    128.80      0  01:40       0.000     0.000
  HS02004852              0.01     19.41      0  01:40       0.000     0.000
  HS02004856              0.01     31.71      0  01:40       0.000     0.000
  HS02004862              0.01     32.00      0  01:40       0.000     0.000
  HS02004881              0.01    384.27      0  01:40       0.001     0.000
  HS02004901              0.21    401.97      0  01:45       0.204     0.000
  WS02004401              0.01     28.47      0  01:36       0.000     0.000
  WS02006109              0.19    137.41      0  01:41       0.048     0.000
  WS02006110              0.01     28.17      0  01:36       0.000     0.000
  WS02006112              0.01    121.15      0  01:36       0.001     0.000
  WS02006230              0.45    507.37      0  01:43       0.483     0.000
  WS02006231              0.01    128.44      0  01:34       0.000     0.000
  WS02006232              0.09     26.02      0  01:34       0.000     0.000
  WS02006234              0.49    128.81      0  01:43       0.139     0.000
  WS02006235              0.01     87.70      0  01:34       0.000     0.000
  WS02006239              0.01     75.11      0  01:34       0.000     0.000
  WS02006240              0.01    180.49      0  01:34       0.000     0.000
  WS02006242              0.60    185.33      0  01:34       0.253     0.000
  WS02006248              0.94    356.52      0  01:39       0.878     0.000
  WS02006249              1.18   1257.28      0  01:40       2.860     0.000
  WS02006251              0.01     75.45      0  01:40       0.000     0.000
  WS02006252              0.13    261.78      0  03:00       0.024     0.000
  WS02006253              0.01    112.20      0  01:40       0.000     0.000
  WS02006256              0.91    293.19      0  00:00       0.491     0.000
  YS02001580              0.01    116.69      0  01:38       0.001     0.000
  YS02001583              0.01    128.61      0  01:38       0.000     0.000
  YS02001586              0.12    137.09      0  01:38       0.006     0.000
  YS02001590              0.01      1.68      0  01:38       0.000     0.000
  YS02001593              0.01     73.40      0  01:37       0.000     0.000
  YS02001596              0.01     25.03      0  01:37       0.000     0.000
  YS02001600              0.01     21.90      0  01:37       0.000     0.000
  YS02001601              0.33    534.79      0  01:41       0.367     0.000
  YS02001602              0.18     61.95      0  01:46       0.031     0.000
  YS02001605              0.01     13.04      0  01:38       0.000     0.000
  YS02001607              0.01     20.92      0  01:38       0.000     0.000
  YS02001610              0.12    181.04      0  01:38       0.024     0.000
  YS02001613              0.01     46.48      0  01:38       0.000     0.000
  YS02001616              0.01     38.14      0  01:38       0.000     0.000
  YS02001619              0.01     32.92      0  01:39       0.000     0.000
  YS02001622              0.01      5.83      0  01:39       0.000     0.000
  YS02001625              0.07    120.37      0  01:39       0.006     0.000
  YS02001629              0.01    230.50      0  01:38       0.001     0.000
  YS02001890              0.01     39.17      0  01:43       0.000     0.000
  YS02001907              0.05    399.24      0  01:43       0.039     0.000
  YSB1171                 0.01     71.71      0  01:41       0.001     0.000
  
  
  **********************
  Storage Volume Summary
  **********************
  
  --------------------------------------------------------------------------------------------------
                         Average     Avg  Evap Exfil       Maximum     Max    Time of Max    Maximum
                          Volume    Pcnt  Pcnt  Pcnt        Volume    Pcnt     Occurrence    Outflow
  Storage Unit           1000 m3    Full  Loss  Loss       1000 m3    Full    days hr:min        LPS
  --------------------------------------------------------------------------------------------------
  CC-storage               1.776      28     0     0         3.366      53       0  02:15    1783.53
  JK-storage               0.068      23     0     0         0.211      72       0  01:59    2300.00
  XR-storage               0.935      65     0     0         1.111      77       0  08:00     380.00
  
  
  ***********************
  Outfall Loading Summary
  ***********************
  
  -----------------------------------------------------------
                         Flow       Avg       Max       Total
                         Freq      Flow      Flow      Volume
  Outfall Node           Pcnt       LPS       LPS    10^6 ltr
  -----------------------------------------------------------
  CC-1                  25.88    683.00    683.00       2.930
  CC-2                  33.42    683.00    683.00       3.013
  JK-1                   6.19   1000.00   1000.00       0.890
  JK-2                   6.02   1000.00   1000.00       0.920
  WSC                   99.95    595.70   1482.35      12.623
  -----------------------------------------------------------
  System                34.29   3961.70   1482.35      20.376
  
  
  ********************
  Link Flow Summary
  ********************
  
  -----------------------------------------------------------------------------
                                 Maximum  Time of Max   Maximum    Max/    Max/
                                  |Flow|   Occurrence   |Veloc|    Full    Full
  Link                 Type          LPS  days hr:min     m/sec    Flow   Depth
  -----------------------------------------------------------------------------
  1                    CONDUIT   1482.35     0  01:47      3.68    0.52    0.51
  HS02004478WS02006287 CONDUIT   2162.32     0  01:41      2.66    0.61    1.00
  HS02004479HS02004480 CONDUIT    431.37     0  01:38      0.62    0.42    1.00
  HS02004480HS02004478 CONDUIT   2200.16     0  01:38      3.14    9.27    1.00
  HS02004770HS02004777 CONDUIT    906.53     0  01:37      1.30    1.66    1.00
  HS02004777HS02004785 CONDUIT    911.37     0  01:37      1.46    1.12    1.00
  HS02004785HS02004788 CONDUIT    713.86     0  01:37      1.35    5.38    1.00
  HS02004788HS02004792 CONDUIT    821.15     0  01:50      1.42    0.54    1.00
  HS02004792HS02004799 CONDUIT   1628.50     0  01:38      2.33    1.00    1.00
  HS02004799HS02004480 CONDUIT   1798.47     0  01:38      2.57    2.27    1.00
  HS02004802HS02004478 CONDUIT    354.23     0  01:42      0.65    0.31    1.00
  HS02004807HS02004802 CONDUIT    354.28     0  01:42      0.58    0.68    1.00
  HS02004817HS02004807 CONDUIT    506.72     0  01:38      0.72    0.30    1.00
  HS02004817HS02004824 CONDUIT    508.48     0  01:38      0.73    0.23    1.00
  HS02004824HS02004830 CONDUIT    749.98     0  01:38      1.09    0.98    1.00
  HS02004830HS02004837 CONDUIT    804.65     0  01:38      1.27    0.80    1.00
  HS02004837HS02004842 CONDUIT    924.07     0  01:38      1.32    0.55    1.00
  HS02004842HS02004848 CONDUIT    924.14     0  01:38      1.47    0.54    1.00
  HS02004848HS02004852 CONDUIT   1106.08     0  01:39      1.74    1.25    1.00
  HS02004852HS02004856 CONDUIT   1034.17     0  01:40      1.55    1.18    1.00
  HS02004856HS02004862 CONDUIT   1116.71     0  01:40      1.74    1.11    1.00
  HS02004862HS02004870 CONDUIT   1241.59     0  01:39      1.98    1.34    1.00
  HS02004870HS02004876 CONDUIT   1389.43     0  01:40      2.15    0.92    1.00
  HS02004876HS02004881 CONDUIT   1404.92     0  01:40      2.47   14.94    1.00
  HS02004881HS02006253 CONDUIT   1334.03     0  01:40      2.27    0.26    1.00
  HS02004901HS02004770 CONDUIT    255.74     0  01:45      0.37    0.96    1.00
  WS02001211WS02001212 CONDUIT    314.11     0  01:45      0.54    0.24    0.72
  WS02001212WS02001213 CONDUIT    344.74     0  01:45      1.04    0.53    0.61
  WS02001213WS02003059 CONDUIT    299.18     0  01:44      0.47    0.49    0.92
  WS02003059WS02003060 CONDUIT    404.02     0  01:39      0.71    0.26    0.82
  WS02003060WS02003069 CONDUIT   1485.91     0  01:47      2.26    0.58    0.60
  WS02003066WSF200     CONDUIT   1268.15     0  01:41      3.69    0.21    0.40
  WS02003067WS02003066 CONDUIT   1272.78     0  01:40      2.01    0.41    0.57
  WS02003069WS02003072 CONDUIT   1477.76     0  01:45      1.89    0.71    0.66
  WS02003072WS02003073 CONDUIT   1481.88     0  01:46      2.04    3.20    0.61
  WS02004138WS02004139 CONDUIT    190.63     0  00:29      2.17    0.04    0.43
  WS02004139WS02001211 CONDUIT    362.46     0  01:42      0.54    0.46    0.62
  WS02004401WS02004402 CONDUIT   1294.44     0  01:38      1.65    1.55    1.00
  WS02004402WS02004403 CONDUIT   1296.84     0  01:38      1.65    1.86    1.00
  WS02004403WS02004404 CONDUIT   1301.59     0  01:38      1.66    0.94    1.00
  WS02004404WS02004405 CONDUIT   1308.27     0  01:38      1.67   12.82    1.00
  WS02004405WS02004406 CONDUIT   1340.65     0  01:36      1.71    2.64    1.00
  WS02004406WS02004407 CONDUIT   1339.75     0  01:36      2.23    0.60    0.93
  WS02004407WS02004409 CONDUIT   1354.23     0  01:37      2.42    0.48    0.93
  WS02004409WS02004410 CONDUIT   1356.87     0  01:37      1.84    1.75    1.00
  WS02004410WS02004411 CONDUIT   1312.72     0  01:38      1.80    1.79    1.00
  WS02004411WS02004412 CONDUIT   1257.56     0  01:41      1.70    1.79    1.00
  WS02004412WS02004413 CONDUIT   1257.62     0  01:41      1.60    0.84    1.00
  WS02004413WS02003067 CONDUIT   1257.52     0  01:41      1.96    0.54    0.76
  WS02006109WS02006110 CONDUIT   1208.21     0  01:35      2.40    2.32    1.00
  WS02006110WS02006113 CONDUIT   1208.16     0  01:35      2.41    1.10    1.00
  WS02006111WS02006112 CONDUIT   1132.43     0  01:38      2.30    0.54    1.00
  WS02006112WS02006115 CONDUIT   1295.30     0  01:38      1.65    0.76    1.00
  WS02006113WS02006111 CONDUIT   1202.68     0  01:36      2.73    1.44    1.00
  WS02006115WS02006116 CONDUIT   1294.81     0  01:38      1.65    1.66    1.00
  WS02006116WS02004401 CONDUIT   1294.21     0  01:38      1.65    1.78    1.00
  WS02006228WS02006109 CONDUIT   1221.95     0  01:43      2.43    5.34    1.00
  WS02006229WS02006228 CONDUIT   1220.62     0  01:43      2.43    4.04    1.00
  WS02006230WS02006229 CONDUIT    950.93     0  01:43      2.47   21.16    1.00
  WS02006231WS02006230 CONDUIT    453.26     0  01:41      1.25    6.88    1.00
  WS02006232WS02006231 CONDUIT    453.79     0  01:43      1.18    0.95    1.00
  WS02006234WS02006232 CONDUIT    453.04     0  01:41      1.41    0.92    1.00
  WS02006235WS02006234 CONDUIT    414.35     0  02:00      1.21    4.37    1.00
  WS02006238WS02006235 CONDUIT    415.63     0  01:44      1.45    0.93    1.00
  WS02006239WS02006238 CONDUIT    414.98     0  01:44      1.11    1.33    1.00
  WS02006240WS02006239 CONDUIT    415.01     0  01:40      1.33    1.31    1.00
  WS02006242WS02006240 CONDUIT    504.13     0  01:34      1.32    2.00    1.00
  WS02006243WS02006242 CONDUIT    500.01     0  01:34      1.39    1.07    1.00
  WS02006245WS02006243 CONDUIT    514.91     0  01:34      1.44    1.52    1.00
  WS02006247WS02006245 CONDUIT    522.59     0  01:34      1.49    4.14    1.00
  WS02006248WS02006247 CONDUIT    521.38     0  01:34      1.47    1.13    1.00
  WS02006249WS02006248 CONDUIT    523.05     0  01:33      1.45    2.87    1.00
  WS02006251WS02006249 CONDUIT   1331.59     0  01:40      3.46    3.84    1.00
  WS02006252WS02006251 CONDUIT    409.30     0  01:34     19.70    1.50    1.00
  WS02006253WS02006251 CONDUIT   1357.22     0  01:40      3.53    4.07    1.00
  WS02006256WS02006235 CONDUIT    288.93     0  00:00      4.23    3.06    1.00
  WS02006280WS02006229 CONDUIT   2166.36     0  01:41      4.46    0.46    1.00
  WS02006284WS02006280 CONDUIT   2163.74     0  01:41      2.96    0.91    1.00
  WS02006287WS02006284 CONDUIT   2162.88     0  01:41      2.75    1.00    1.00
  WSF200WS02003060     CONDUIT   1429.70     0  01:39      3.07    0.32    0.50
  YS02001580YS02001583 CONDUIT    188.95     0  01:38      0.93    0.73    1.00
  YS02001583YS02001586 CONDUIT    210.20     0  01:37      0.97    0.32    1.00
  YS02001586YS02001590 CONDUIT    318.10     0  01:43      1.34    0.56    1.00
  YS02001590YS02001593 CONDUIT    318.03     0  01:44      1.12    2.00    1.00
  YS02001593YS02001596 CONDUIT    317.88     0  01:43      1.72    0.50    1.00
  YS02001596YS02001600 CONDUIT    318.77     0  01:43      1.19    0.62    1.00
  YS02001600YS02001601 CONDUIT    319.21     0  01:43      1.13    0.55    1.00
  YS02001601YS02001602 CONDUIT    591.38     0  01:38      2.09    2.14    1.00
  YS02001602YS02001605 CONDUIT    591.52     0  01:38      2.09   12.52    1.00
  YS02001605YS02001607 CONDUIT    591.21     0  01:38      2.09    3.24    1.00
  YS02001607YS02001610 CONDUIT    566.43     0  01:38      0.76    0.54    1.00
  YS02001610YS02001613 CONDUIT    542.19     0  01:38      0.72    0.63    1.00
  YS02001613YS02001616 CONDUIT    512.71     0  01:57      0.70    0.44    1.00
  YS02001616YS02001619 CONDUIT    513.30     0  01:57      0.69    0.89    1.00
  YS02001619YS02001622 CONDUIT    919.58     0  01:40      1.41    1.36    1.00
  YS02001622YS02001625 CONDUIT    919.76     0  01:40      1.17    0.49    1.00
  YS02001625YS02001629 CONDUIT    920.36     0  01:40      1.17    0.44    1.00
  YS02001629YS02163301 CONDUIT    919.52     0  01:40      1.17    1.13    1.00
  YS02001633YS02163601 CONDUIT   1381.06     0  01:40      1.76    1.45    1.00
  YS02001641YS02001644 CONDUIT   1383.69     0  01:40      1.76    4.47    1.00
  YS02001644YS02001647 CONDUIT   1783.62     0  01:40      2.33    1.05    1.00
  YS02001647YS02001649 CONDUIT   1788.31     0  01:40      2.39    0.94    1.00
  YS02001649YS02001757 CONDUIT   2174.13     0  01:40      2.77    1.32    1.00
  YS02001652YS02001649 CONDUIT    460.03     0  01:40      0.92    0.23    1.00
  YS02001655YS02001652 CONDUIT    446.79     0  01:40      1.74    0.22    0.95
  YS02001658YS02001655 CONDUIT    487.30     0  01:44      2.09    0.21    0.70
  YS02001661YS02001658 CONDUIT    400.12     0  01:39      2.29    0.16    0.41
  YS02001664YS02001661 CONDUIT    399.40     0  01:39      2.13    0.13    0.29
  YS02001745YS02001748 CONDUIT    261.69     0  01:39      2.12    0.10    0.29
  YS02001748YS02001751 CONDUIT    315.82     0  01:44      1.78    0.16    0.53
  YS02001751YS02001754 CONDUIT    336.81     0  01:45      1.74    0.16    0.76
  YS02001754YS02001757 CONDUIT    301.83     0  01:47      0.71    0.12    0.96
  YS02001757CaochengTiaoxuchi CONDUIT   2846.33     0  01:44      3.96    1.23    1.00
  YS02001759YS02001757 CONDUIT    833.62     0  01:43      1.11    0.59    1.00
  YS02001762YS02001759 CONDUIT    516.20     0  01:43      0.66    0.59    1.00
  YS02001765YS02001762 CONDUIT    515.20     0  01:43      0.73    0.48    1.00
  YS02001767YS02001765 CONDUIT    510.63     0  01:43      0.90    0.64    1.00
  YS02001770YS02001767 CONDUIT    504.85     0  01:43      0.97    2.00    1.00
  YS02001774YS02001770 CONDUIT    138.39     0  01:40      0.22    0.09    1.00
  YS02001779YS02001774 CONDUIT     95.69     0  01:42      0.13    0.05    0.97
  YS02001783YS02001784 CONDUIT   1141.04     0  01:43      2.27    1.57    1.00
  YS02001784YS02001785 CONDUIT   1141.98     0  01:43      2.27    2.66    1.00
  YS02001786YS02001788 CONDUIT   1145.10     0  01:43      2.44    2.21    0.88
  YS02001788YS02001790 CONDUIT   1143.69     0  01:42      2.66    0.84    0.83
  YS02001790YS02001791 CONDUIT   1270.79     0  01:43      3.41    1.38    0.70
  YS02001791YS02001793 CONDUIT   1192.87     0  01:46      6.72    0.51    0.40
  YS02001793JiankangQianchi CONDUIT   1192.28     0  01:46      2.40    0.09    0.60
  YS02001882YS02001884 CONDUIT     61.59     0  01:39      0.14    0.07    1.00
  YS02001884YS02001887 CONDUIT     96.05     0  01:39      0.15    0.13    1.00
  YS02001887YS02001890 CONDUIT    415.02     0  01:39      0.53    0.71    1.00
  YS02001890YS02001895 CONDUIT    416.87     0  01:40      0.53    0.19    1.00
  YS02001895YS02001898 CONDUIT    424.62     0  01:40      0.54    0.74    1.00
  YS02001898YS02001901 CONDUIT    441.33     0  01:40      0.56    0.28    1.00
  YS02001901YS02001904 CONDUIT    443.52     0  01:40      0.56    0.69    1.00
  YS02001904YS02001907 CONDUIT    449.42     0  01:40      0.57    0.16    1.00
  YS02001907YS02006553 CONDUIT    781.60     0  01:49      0.87    0.92    1.00
  YS02001910YS02001907 CONDUIT    780.85     0  01:43      0.99    0.44    1.00
  YS02001915YS02001910 CONDUIT    779.95     0  01:43      0.99    0.39    1.00
  YS02001918YS02001915 CONDUIT    399.25     0  01:43      0.51    0.22    1.00
  YS02001920YS02001918 CONDUIT    398.17     0  01:43      0.71    0.39    1.00
  YS02001923YS02001920 CONDUIT    394.06     0  01:43      0.89    0.18    1.00
  YS02001926YS02001923 CONDUIT    347.33     0  01:43      0.98    0.50    1.00
  YS02001929YS02001926 CONDUIT    306.03     0  01:43      1.11    0.15    0.94
  YS02006553YS02006556 CONDUIT    781.72     0  01:49      1.00    0.67    1.00
  YS02006556YS02006558 CONDUIT    783.27     0  01:48      1.00    0.62    1.00
  YS02006558YS02006561 CONDUIT   1145.84     0  01:43      4.05    2.53    1.00
  YS02006561YS02001783 CONDUIT   1141.95     0  01:43      2.28    0.59    1.00
  YS02163301YS02001633 CONDUIT    918.72     0  01:40      1.17    0.86    1.00
  YS02163601YS02164001 CONDUIT   1381.71     0  01:40      1.76    1.22    1.00
  YS02164001YS02001641 CONDUIT   1383.70     0  01:40      1.76    1.89    1.00
  YSB1154YSB6556       CONDUIT    220.76     0  01:40      0.57    0.40    1.00
  YSB1171HS02004479    CONDUIT    424.87     0  01:38      0.85    0.28    1.00
  YSB1174YSB1171       CONDUIT    197.72     0  01:38      0.51    0.30    1.00
  YSB6556YSB1171       CONDUIT    222.30     0  01:38      0.58    0.23    1.00
  CC-R1                PUMP       683.00     0  00:00              1.00
  CC-R2                PUMP       683.00     0  00:00              1.00
  CC-S1                PUMP       200.00     0  00:00              1.00
  CC-S2                PUMP       200.00     0  00:00              1.00
  JK-R1                PUMP      1000.00     0  00:00              1.00
  JK-R2                PUMP      1000.00     0  00:00              1.00
  JK-S                 PUMP       300.00     0  00:00              1.00
  XR-1                 PUMP        95.00     0  00:00              1.00
  XR-2                 PUMP        95.00     0  00:00              1.00
  XR-3                 PUMP        95.00     0  00:00              1.00
  XR-4                 PUMP        95.00     0  00:00              1.00
  
  
  ***************************
  Flow Classification Summary
  ***************************
  
  -------------------------------------------------------------------------------------
                      Adjusted    ---------- Fraction of Time in Flow Class ---------- 
                       /Actual         Up    Down  Sub   Sup   Up    Down  Norm  Inlet 
  Conduit               Length    Dry  Dry   Dry   Crit  Crit  Crit  Crit  Ltd   Ctrl  
  -------------------------------------------------------------------------------------
  1                       1.00   0.00  0.00  0.00  0.00  1.00  0.00  0.00  0.38  0.00
  HS02004478WS02006287    1.00   0.13  0.00  0.00  0.54  0.32  0.00  0.00  0.62  0.00
  HS02004479HS02004480    1.00   0.07  0.00  0.00  0.93  0.00  0.00  0.00  0.12  0.00
  HS02004480HS02004478    1.00   0.12  0.00  0.00  0.48  0.00  0.00  0.40  0.00  0.00
  HS02004770HS02004777    1.00   0.00  0.12  0.00  0.88  0.00  0.00  0.00  0.03  0.00
  HS02004777HS02004785    1.00   0.00  0.00  0.00  1.00  0.00  0.00  0.00  0.12  0.00
  HS02004785HS02004788    1.00   0.00  0.00  0.00  1.00  0.00  0.00  0.00  0.00  0.00
  HS02004788HS02004792    1.00   0.00  0.00  0.00  0.99  0.01  0.00  0.00  0.93  0.00
  HS02004792HS02004799    1.00   0.00  0.00  0.00  0.98  0.02  0.00  0.00  0.90  0.00
  HS02004799HS02004480    1.00   0.00  0.07  0.00  0.87  0.00  0.06  0.00  0.00  0.00
  HS02004802HS02004478    1.00   0.12  0.00  0.00  0.88  0.00  0.00  0.00  0.03  0.00
  HS02004807HS02004802    1.00   0.12  0.00  0.00  0.88  0.00  0.00  0.01  0.00  0.00
  HS02004817HS02004807    1.00   0.00  0.12  0.00  0.88  0.00  0.00  0.00  0.01  0.00
  HS02004817HS02004824    1.00   0.00  0.00  0.00  1.00  0.00  0.00  0.00  0.86  0.00
  HS02004824HS02004830    1.00   0.00  0.00  0.00  1.00  0.00  0.00  0.00  0.00  0.00
  HS02004830HS02004837    1.00   0.00  0.00  0.00  1.00  0.00  0.00  0.00  0.91  0.00
  HS02004837HS02004842    1.00   0.00  0.00  0.00  1.00  0.00  0.00  0.00  0.11  0.00
  HS02004842HS02004848    1.00   0.00  0.12  0.00  0.88  0.00  0.00  0.00  0.60  0.00
  HS02004848HS02004852    1.00   0.12  0.00  0.00  0.88  0.00  0.00  0.00  0.74  0.00
  HS02004852HS02004856    1.00   0.12  0.01  0.00  0.88  0.00  0.00  0.00  0.72  0.00
  HS02004856HS02004862    1.00   0.00  0.14  0.00  0.86  0.00  0.00  0.00  0.77  0.00
  HS02004862HS02004870    1.00   0.00  0.00  0.00  1.00  0.00  0.00  0.00  0.03  0.00
  HS02004870HS02004876    1.00   0.00  0.00  0.00  0.98  0.01  0.00  0.00  0.89  0.00
  HS02004876HS02004881    1.00   0.04  0.00  0.00  0.68  0.28  0.00  0.00  0.00  0.00
  HS02004881HS02006253    1.00   0.02  0.06  0.00  0.37  0.02  0.00  0.53  0.16  0.00
  HS02004901HS02004770    1.00   0.12  0.00  0.00  0.88  0.00  0.00  0.00  0.00  0.00
  WS02001211WS02001212    1.00   0.00  0.06  0.00  0.94  0.00  0.00  0.00  0.00  0.00
  WS02001212WS02001213    1.00   0.06  0.00  0.00  0.45  0.00  0.49  0.00  0.00  0.00
  WS02001213WS02003059    1.00   0.00  0.00  0.00  0.99  0.00  0.00  0.00  0.00  0.00
  WS02003059WS02003060    1.00   0.00  0.00  0.00  1.00  0.00  0.00  0.00  0.03  0.00
  WS02003060WS02003069    1.00   0.00  0.00  0.00  0.99  0.01  0.00  0.00  0.58  0.00
  WS02003066WSF200        1.00   0.09  0.00  0.00  0.00  0.91  0.00  0.00  0.73  0.00
  WS02003067WS02003066    1.00   0.08  0.00  0.00  0.91  0.00  0.00  0.00  0.00  0.00
  WS02003069WS02003072    1.00   0.00  0.00  0.00  1.00  0.00  0.00  0.00  0.71  0.00
  WS02003072WS02003073    1.00   0.00  0.00  0.00  0.00  0.00  0.00  1.00  0.00  0.00
  WS02004138WS02004139    1.00   0.00  0.02  0.00  0.95  0.01  0.00  0.03  0.98  0.00
  WS02004139WS02001211    1.00   0.00  0.00  0.00  0.99  0.00  0.00  0.00  0.00  0.00
  WS02004401WS02004402    1.00   0.06  0.00  0.00  0.94  0.00  0.00  0.00  0.00  0.00
  WS02004402WS02004403    1.00   0.06  0.00  0.00  0.94  0.00  0.00  0.00  0.00  0.00
  WS02004403WS02004404    1.00   0.00  0.06  0.00  0.94  0.00  0.00  0.00  0.00  0.00
  WS02004404WS02004405    1.00   0.00  0.00  0.00  1.00  0.00  0.00  0.00  0.01  0.00
  WS02004405WS02004406    1.00   0.00  0.00  0.00  1.00  0.00  0.00  0.00  0.00  0.00
  WS02004406WS02004407    1.00   0.00  0.07  0.00  0.93  0.00  0.00  0.00  0.00  0.00
  WS02004407WS02004409    1.00   0.07  0.00  0.00  0.92  0.01  0.00  0.00  0.87  0.00
  WS02004409WS02004410    1.00   0.07  0.00  0.00  0.93  0.00  0.00  0.00  0.00  0.00
  WS02004410WS02004411    1.00   0.07  0.00  0.00  0.93  0.00  0.00  0.00  0.00  0.00
  WS02004411WS02004412    1.00   0.07  0.00  0.00  0.93  0.00  0.00  0.00  0.00  0.00
  WS02004412WS02004413    1.00   0.08  0.00  0.00  0.92  0.00  0.00  0.00  0.00  0.00
  WS02004413WS02003067    1.00   0.08  0.01  0.00  0.00  0.00  0.92  0.00  0.00  0.00
  WS02006109WS02006110    1.00   0.00  0.01  0.00  0.97  0.00  0.03  0.00  0.00  0.00
  WS02006110WS02006113    1.00   0.01  0.03  0.00  0.96  0.00  0.00  0.00  0.00  0.00
  WS02006111WS02006112    1.00   0.04  0.00  0.00  0.94  0.01  0.00  0.01  0.80  0.00
  WS02006112WS02006115    1.00   0.04  0.01  0.00  0.94  0.00  0.00  0.00  0.00  0.00
  WS02006113WS02006111    1.00   0.04  0.00  0.00  0.27  0.70  0.00  0.00  0.08  0.00
  WS02006115WS02006116    1.00   0.06  0.00  0.00  0.94  0.00  0.00  0.01  0.00  0.00
  WS02006116WS02004401    1.00   0.06  0.00  0.00  0.94  0.00  0.00  0.00  0.00  0.00
  WS02006228WS02006109    1.00   0.00  0.00  0.00  1.00  0.00  0.00  0.00  0.00  0.00
  WS02006229WS02006228    1.00   0.00  0.00  0.00  0.99  0.00  0.00  0.01  0.00  0.00
  WS02006230WS02006229    1.00   0.00  0.00  0.00  0.97  0.00  0.00  0.03  0.04  0.00
  WS02006231WS02006230    1.00   0.00  0.00  0.00  0.46  0.00  0.54  0.00  0.00  0.00
  WS02006232WS02006231    1.00   0.00  0.00  0.00  0.99  0.00  0.01  0.00  0.00  0.00
  WS02006234WS02006232    1.00   0.00  0.00  0.00  1.00  0.00  0.00  0.00  0.06  0.00
  WS02006235WS02006234    1.00   0.00  0.00  0.00  0.91  0.00  0.09  0.00  0.00  0.00
  WS02006238WS02006235    1.00   0.00  0.00  0.00  1.00  0.00  0.00  0.00  0.00  0.00
  WS02006239WS02006238    1.00   0.00  0.00  0.00  1.00  0.00  0.00  0.00  0.21  0.00
  WS02006240WS02006239    1.00   0.00  0.00  0.00  0.74  0.00  0.00  0.26  0.04  0.00
  WS02006242WS02006240    1.00   0.00  0.00  0.00  0.99  0.00  0.01  0.00  0.00  0.00
  WS02006243WS02006242    1.00   0.00  0.00  0.00  0.99  0.00  0.00  0.00  0.67  0.00
  WS02006245WS02006243    1.00   0.00  0.00  0.00  0.83  0.00  0.00  0.17  0.01  0.00
[...]
  WS02006251WS02006249    1.00   0.00  0.00  0.00  1.00  0.00  0.00  0.00  0.66  0.00
  WS02006252WS02006251    1.00   0.03  0.45  0.00  0.25  0.01  0.27  0.00  0.00  0.00
  WS02006253WS02006251    1.00   0.00  0.00  0.00  0.99  0.00  0.01  0.00  0.01  0.00
  WS02006256WS02006235    1.00   0.00  0.00  0.00  0.98  0.02  0.00  0.00  0.00  0.00
  WS02006280WS02006229    1.00   0.12  0.00  0.00  0.19  0.05  0.00  0.64  0.01  0.00
  WS02006284WS02006280    1.00   0.12  0.00  0.00  0.13  0.02  0.00  0.74  0.00  0.00
  WS02006287WS02006284    1.00   0.11  0.03  0.00  0.44  0.42  0.00  0.00  0.66  0.00
  WSF200WS02003060        1.00   0.00  0.09  0.00  0.51  0.40  0.00  0.00  0.68  0.00
  YS02001580YS02001583    1.00   0.18  0.56  0.00  0.26  0.00  0.00  0.00  0.74  0.00
  YS02001583YS02001586    1.00   0.35  0.25  0.00  0.40  0.00  0.00  0.00  0.74  0.00
  YS02001586YS02001590    1.00   0.12  0.00  0.00  0.56  0.03  0.00  0.30  0.32  0.00
  YS02001590YS02001593    1.00   0.12  0.00  0.00  0.12  0.00  0.76  0.00  0.00  0.00
  YS02001593YS02001596    1.00   0.12  0.00  0.00  0.15  0.01  0.00  0.72  0.02  0.00
  YS02001596YS02001600    1.00   0.12  0.00  0.00  0.24  0.06  0.00  0.57  0.06  0.00
  YS02001600YS02001601    1.00   0.12  0.00  0.00  0.88  0.00  0.00  0.00  0.64  0.00
  YS02001601YS02001602    1.00   0.12  0.01  0.00  0.88  0.00  0.00  0.00  0.00  0.00
  YS02001602YS02001605    1.00   0.12  0.00  0.00  0.88  0.00  0.00  0.00  0.00  0.00
  YS02001605YS02001607    1.00   0.12  0.00  0.00  0.88  0.00  0.00  0.00  0.00  0.00
  YS02001607YS02001610    1.00   0.12  0.00  0.00  0.88  0.00  0.00  0.00  0.02  0.00
  YS02001610YS02001613    1.00   0.12  0.00  0.00  0.88  0.00  0.00  0.00  0.01  0.00
  YS02001613YS02001616    1.00   0.12  0.00  0.00  0.88  0.00  0.00  0.00  0.01  0.00
  YS02001616YS02001619    1.00   0.12  0.00  0.00  0.88  0.00  0.00  0.00  0.00  0.00
  YS02001619YS02001622    1.00   0.12  0.00  0.00  0.88  0.00  0.00  0.00  0.37  0.00
  YS02001622YS02001625    1.00   0.12  0.00  0.00  0.88  0.00  0.00  0.00  0.05  0.00
  YS02001625YS02001629    1.00   0.12  0.03  0.00  0.18  0.00  0.68  0.00  0.00  0.00
  YS02001629YS02163301    1.00   0.13  0.00  0.00  0.86  0.00  0.00  0.00  0.00  0.00
  YS02001633YS02163601    1.00   0.00  0.01  0.00  0.99  0.00  0.00  0.00  0.15  0.00
  YS02001641YS02001644    1.00   0.00  0.00  0.00  1.00  0.00  0.00  0.00  0.00  0.00
  YS02001644YS02001647    1.00   0.00  0.14  0.00  0.86  0.00  0.00  0.00  0.00  0.00
  YS02001647YS02001649    1.00   0.00  0.14  0.00  0.43  0.43  0.00  0.00  0.60  0.00
  YS02001649YS02001757    1.00   0.00  0.00  0.00  0.56  0.43  0.00  0.00  0.63  0.00
  YS02001652YS02001649    1.00   0.00  0.00  0.00  0.97  0.03  0.00  0.00  0.78  0.00
  YS02001655YS02001652    1.00   0.00  0.00  0.00  0.20  0.03  0.00  0.78  0.08  0.00
  YS02001658YS02001655    1.00   0.00  0.12  0.00  0.45  0.42  0.00  0.00  0.78  0.00
  YS02001661YS02001658    1.00   0.12  0.00  0.00  0.31  0.56  0.00  0.00  0.79  0.00
  YS02001664YS02001661    1.00   0.12  0.00  0.00  0.70  0.19  0.00  0.00  0.87  0.00
  YS02001745YS02001748    1.00   0.00  0.00  0.00  0.01  0.02  0.00  0.97  0.01  0.00
  YS02001748YS02001751    1.00   0.00  0.00  0.00  0.60  0.40  0.00  0.00  0.84  0.00
  YS02001751YS02001754    1.00   0.00  0.00  0.00  0.14  0.01  0.00  0.85  0.04  0.00
  YS02001754YS02001757    1.00   0.00  0.00  0.00  1.00  0.00  0.00  0.00  0.91  0.00
  YS02001757CaochengTiaoxuchi    1.00   0.00  0.00  0.00  0.96  0.04  0.00  0.00  0.90  0.00
  YS02001759YS02001757    1.00   0.00  0.00  0.00  1.00  0.00  0.00  0.00  0.65  0.00
  YS02001762YS02001759    1.00   0.00  0.00  0.00  1.00  0.00  0.00  0.00  0.04  0.00
  YS02001765YS02001762    1.00   0.00  0.00  0.00  1.00  0.00  0.00  0.00  0.77  0.00
  YS02001767YS02001765    1.00   0.00  0.00  0.00  1.00  0.00  0.00  0.00  0.00  0.00
  YS02001770YS02001767    1.00   0.00  0.00  0.00  1.00  0.00  0.00  0.00  0.00  0.00
  YS02001774YS02001770    1.00   0.00  0.12  0.00  0.71  0.00  0.17  0.00  0.03  0.00
  YS02001779YS02001774    1.00   0.00  0.00  0.00  1.00  0.00  0.00  0.00  0.84  0.00
  YS02001783YS02001784    1.00   0.00  0.15  0.00  0.85  0.00  0.00  0.00  0.58  0.00
  YS02001784YS02001785    1.00   0.00  0.00  0.00  1.00  0.00  0.00  0.00  0.17  0.00
  YS02001786YS02001788    1.00   0.00  0.00  0.00  0.61  0.39  0.00  0.00  0.00  0.00
  YS02001788YS02001790    1.00   0.00  0.00  0.00  0.18  0.82  0.00  0.00  0.87  0.00
  YS02001790YS02001791    1.00   0.00  0.00  0.00  0.02  0.98  0.00  0.00  0.17  0.00
  YS02001791YS02001793    1.00   0.00  0.00  0.00  0.00  1.00  0.00  0.00  0.00  0.00
  YS02001793JiankangQianchi    1.00   0.00  0.00  0.00  0.97  0.02  0.00  0.00  1.00  0.00
  YS02001882YS02001884    1.00   0.13  0.00  0.00  0.87  0.00  0.00  0.00  0.00  0.00
  YS02001884YS02001887    1.00   0.08  0.03  0.00  0.89  0.00  0.00  0.00  0.00  0.00
  YS02001887YS02001890    1.00   0.00  0.00  0.00  0.94  0.00  0.06  0.00  0.00  0.00
  YS02001890YS02001895    1.00   0.00  0.13  0.00  0.86  0.00  0.00  0.00  0.00  0.00
  YS02001895YS02001898    1.00   0.14  0.00  0.00  0.85  0.00  0.02  0.00  0.00  0.00
  YS02001898YS02001901    1.00   0.14  0.00  0.00  0.86  0.00  0.00  0.00  0.01  0.00
  YS02001901YS02001904    1.00   0.14  0.00  0.00  0.86  0.00  0.00  0.00  0.00  0.00
  YS02001904YS02001907    1.00   0.00  0.13  0.00  0.86  0.00  0.00  0.00  0.00  0.00
  YS02001907YS02006553    1.00   0.00  0.05  0.00  0.94  0.00  0.00  0.00  0.00  0.00
  YS02001910YS02001907    1.00   0.00  0.00  0.00  0.94  0.00  0.00  0.06  0.12  0.00
  YS02001915YS02001910    1.00   0.00  0.00  0.00  0.95  0.05  0.00  0.00  0.16  0.00
  YS02001918YS02001915    1.00   0.00  0.00  0.00  0.94  0.05  0.00  0.00  0.79  0.00
  YS02001920YS02001918    1.00   0.00  0.00  0.00  1.00  0.00  0.00  0.00  0.00  0.00
  YS02001923YS02001920    1.00   0.00  0.00  0.00  1.00  0.00  0.00  0.00  0.96  0.00
  YS02001926YS02001923    1.00   0.00  0.09  0.00  0.05  0.00  0.86  0.00  0.00  0.00
  YS02001929YS02001926    1.00   0.00  0.12  0.00  0.88  0.00  0.00  0.00  0.85  0.00
  YS02006553YS02006556    1.00   0.02  0.00  0.00  0.98  0.00  0.00  0.00  0.03  0.00
  YS02006556YS02006558    1.00   0.00  0.00  0.00  1.00  0.00  0.00  0.00  0.00  0.00
  YS02006558YS02006561    1.00   0.15  0.00  0.00  0.04  0.81  0.00  0.00  0.19  0.00
  YS02006561YS02001783    1.00   0.15  0.00  0.00  0.08  0.77  0.00  0.00  0.73  0.00
  YS02163301YS02001633    1.00   0.00  0.13  0.00  0.87  0.00  0.00  0.00  0.00  0.00
  YS02163601YS02164001    1.00   0.00  0.10  0.00  0.90  0.00  0.00  0.00  0.00  0.00
  YS02164001YS02001641    1.00   0.01  0.09  0.00  0.90  0.00  0.00  0.00  0.06  0.00
  YSB1154YSB6556          1.00   0.11  0.00  0.00  0.89  0.00  0.00  0.00  0.02  0.00
  YSB1171HS02004479       1.00   0.07  0.00  0.00  0.92  0.00  0.00  0.01  0.10  0.00
  YSB1174YSB1171          1.00   0.08  0.02  0.00  0.90  0.00  0.00  0.00  0.00  0.00
  YSB6556YSB1171          1.00   0.07  0.04  0.00  0.89  0.00  0.00  0.00  0.00  0.00
  
  
  *************************
  Conduit Surcharge Summary
  *************************
  
  ----------------------------------------------------------------------------
                                                           Hours        Hours 
                         --------- Hours Full --------   Above Full   Capacity
  Conduit                Both Ends  Upstream  Dnstream   Normal Flow   Limited
  ----------------------------------------------------------------------------
  HS02004478WS02006287        0.27      0.27      0.41      0.01         0.01
  HS02004479HS02004480        0.42      0.42      0.43      0.01         0.01
  HS02004480HS02004478        0.36      0.42      0.36      1.50         0.36
  HS02004770HS02004777        0.35      0.35      0.35      0.11         0.08
  HS02004777HS02004785        0.30      0.30      0.35      0.01         0.01
  HS02004785HS02004788        0.29      0.30      0.29      1.07         0.28
  HS02004788HS02004792        0.29      0.29      0.39      0.01         0.01
  HS02004792HS02004799        0.39      0.39      0.48      0.01         0.01
  HS02004799HS02004480        0.42      0.42      0.48      0.56         0.01
  HS02004802HS02004478        0.37      0.37      0.43      0.01         0.01
  HS02004807HS02004802        0.41      0.41      0.42      0.01         0.01
  HS02004817HS02004807        0.41      0.41      0.87      0.01         0.01
  HS02004817HS02004824        0.29      0.29      0.87      0.01         0.01
  HS02004824HS02004830        0.26      0.26      0.29      0.01         0.01
  HS02004830HS02004837        0.22      0.22      0.26      0.01         0.01
  HS02004837HS02004842        0.22      0.22      0.34      0.01         0.01
  HS02004842HS02004848        0.17      0.17      0.34      0.01         0.01
  HS02004848HS02004852        0.17      0.17      0.21      0.03         0.01
  HS02004852HS02004856        0.20      0.21      0.22      0.03         0.01
  HS02004856HS02004862        0.18      0.18      0.22      0.02         0.01
  HS02004862HS02004870        0.22      0.22      0.24      0.02         0.01
  HS02004870HS02004876        0.24      0.24      0.32      0.01         0.01
  HS02004876HS02004881        0.29      0.32      0.29      1.08         0.29
  HS02004881HS02006253        0.29      0.29      1.17      0.01         0.01
  HS02004901HS02004770        0.35      0.35      0.36      0.01         0.01
  WS02003072WS02003073        0.01      0.01      0.01      2.05         0.01
  WS02004401WS02004402        1.30      1.30      1.33      1.09         1.05
  WS02004402WS02004403        1.33      1.33      1.34      1.29         1.27
  WS02004403WS02004404        1.34      1.34      1.44      0.01         0.01
  WS02004404WS02004405        1.41      1.44      1.41      2.52         1.41
  WS02004405WS02004406        1.39      1.41      1.39      1.56         1.39
  WS02004406WS02004407        0.01      0.01      1.39      0.01         0.01
  WS02004407WS02004409        0.01      0.01      0.67      0.01         0.01
  WS02004409WS02004410        0.62      0.67      0.62      1.19         0.61
  WS02004410WS02004411        0.56      0.62      0.56      1.24         0.56
  WS02004411WS02004412        0.48      0.56      0.48      1.28         0.48
  WS02004412WS02004413        0.48      0.48      1.01      0.01         0.01
  WS02004413WS02003067        0.01      0.01      1.01      0.01         0.01
  WS02006109WS02006110        1.53      1.53      1.67      1.53         0.01
  WS02006110WS02006113        0.92      0.92      1.65      0.27         0.01
  WS02006111WS02006112        0.89      0.89      1.84      0.01         0.01
  WS02006112WS02006115        1.19      1.19      1.58      0.01         0.01
  WS02006113WS02006111        0.90      0.92      0.90      1.08         0.89
  WS02006115WS02006116        1.20      1.20      1.21      1.19         1.17
  WS02006116WS02004401        1.29      1.29      1.30      1.26         1.23
  WS02006228WS02006109        1.64      1.66      1.64      2.03         1.64
  WS02006229WS02006228        1.64      1.64      1.64      1.81         1.64
  WS02006230WS02006229        1.70      1.72      1.70      2.79         1.01
  WS02006231WS02006230        1.40      1.40      1.44      2.44         0.65
  WS02006232WS02006231        1.42      1.42      1.55      0.01         0.08
  WS02006234WS02006232        1.46      1.46      1.55      0.01         0.01
  WS02006235WS02006234        1.44      1.44      1.46      2.10         0.64
  WS02006238WS02006235        1.47      1.47      1.49      0.01         0.22
  WS02006239WS02006238        1.44      1.44      1.47      0.62         0.09
  WS02006240WS02006239        1.39      1.39      1.40      0.60         0.05
  WS02006242WS02006240        1.38      1.38      1.43      1.04         0.61
  WS02006243WS02006242        1.37      1.37      1.40      0.01         0.01
  WS02006245WS02006243        1.36      1.36      1.36      0.09         0.02
  WS02006247WS02006245        1.36      1.38      1.36      1.63         0.43
  WS02006248WS02006247        1.36      1.36      1.37      0.04         0.02
  WS02006249WS02006248        1.33      1.34      1.37      0.73         0.01
  WS02006251WS02006249        1.35      1.37      1.37      1.32         1.18
  WS02006252WS02006251        1.43      1.44      1.47      1.20         0.01
  WS02006253WS02006251        1.36      1.36      1.40      0.52         0.01
  WS02006256WS02006235        2.32      2.35      6.40      0.73         0.01
  WS02006280WS02006229        0.51      0.51      0.63      0.01         0.01
  WS02006284WS02006280        0.43      0.43      0.49      0.01         0.01
  WS02006287WS02006284        0.35      0.35      0.44      0.01         0.03
  YS02001580YS02001583        0.26      0.26      0.31      0.01         0.01
  YS02001583YS02001586        0.27      0.27      0.40      0.01         0.01
  YS02001586YS02001590        0.40      0.40      0.46      0.01         0.01
  YS02001590YS02001593        0.46      0.46      0.47      0.51         0.01
  YS02001593YS02001596        0.47      0.47      0.54      0.01         0.01
  YS02001596YS02001600        0.57      0.57      0.66      0.01         0.01
  YS02001600YS02001601        0.71      0.71      1.00      0.01         0.01
  YS02001601YS02001602        0.87      0.87      1.05      0.68         0.01
  YS02001602YS02001605        0.83      0.83      0.87      1.87         0.01
  YS02001605YS02001607        0.79      0.83      0.79      0.95         0.79
  YS02001607YS02001610        0.39      0.39      0.41      0.01         0.01
  YS02001610YS02001613        0.38      0.38      0.41      0.01         0.01
  YS02001613YS02001616        0.34      0.34      0.38      0.01         0.01
  YS02001616YS02001619        0.33      0.33      0.34      0.01         0.01
  YS02001619YS02001622        0.32      0.33      0.32      0.50         0.31
  YS02001622YS02001625        0.32      0.32      0.50      0.01         0.01
  YS02001625YS02001629        0.24      0.24      0.50      0.01         0.01
  YS02001629YS02163301        0.48      0.48      0.49      0.32         0.30
  YS02001633YS02163601        0.50      0.50      0.53      0.41         0.41
  YS02001641YS02001644        0.36      0.41      0.36      1.11         0.36
  YS02001644YS02001647        0.14      0.14      0.36      0.05         0.01
  YS02001647YS02001649        0.14      0.14      0.20      0.01         0.01
  YS02001649YS02001757        0.17      0.20      0.17      0.25         0.17
  YS02001652YS02001649        0.06      0.06      0.20      0.01         0.01
  YS02001655YS02001652        0.01      0.01      0.04      0.01         0.01
  YS02001754YS02001757        0.01      0.01      0.17      0.01         0.01
  YS02001757CaochengTiaoxuchi        0.01      0.17      0.64      0.26         0.01
  YS02001759YS02001757        0.12      0.12      0.17      0.01         0.01
  YS02001762YS02001759        0.10      0.10      0.12      0.01         0.01
  YS02001765YS02001762        0.07      0.07      0.10      0.01         0.01
  YS02001767YS02001765        0.06      0.06      0.07      0.01         0.01
  YS02001770YS02001767        0.06      0.07      0.06      0.35         0.05
  YS02001774YS02001770        0.04      0.04      0.11      0.01         0.01
  YS02001779YS02001774        0.01      0.01      0.11      0.01         0.01
  YS02001783YS02001784        0.25      0.27      0.25      0.38         0.25
  YS02001784YS02001785        0.15      0.25      0.15      0.55         0.15
  YS02001786YS02001788        0.01      0.15      0.01      0.45         0.01
  YS02001790YS02001791        0.01      0.01      0.01      0.24         0.01
  YS02001793JiankangQianchi        0.01      0.01      6.07      0.01         0.01
  YS02001882YS02001884        0.22      0.22      0.23      0.01         0.01
  YS02001884YS02001887        0.25      0.25      0.26      0.01         0.01
  YS02001887YS02001890        0.28      0.28      0.29      0.01         0.01
  YS02001890YS02001895        0.21      0.21      0.30      0.01         0.01
  YS02001895YS02001898        0.21      0.21      0.21      0.01         0.01
  YS02001898YS02001901        0.22      0.22      0.25      0.01         0.01
  YS02001901YS02001904        0.24      0.24      0.25      0.01         0.01
  YS02001904YS02001907        0.24      0.24      0.44      0.01         0.01
  YS02001907YS02006553        0.55      0.55      0.60      0.01         0.01
  YS02001910YS02001907        0.30      0.30      0.43      0.01         0.01
  YS02001915YS02001910        0.22      0.22      0.30      0.01         0.01
  YS02001918YS02001915        0.13      0.13      0.22      0.01         0.01
  YS02001920YS02001918        0.13      0.13      0.15      0.01         0.01
  YS02001923YS02001920        0.04      0.04      0.15      0.01         0.01
  YS02001926YS02001923        0.01      0.01      0.01      0.01         0.01
  YS02001929YS02001926        0.01      0.01      0.01      0.01         0.01
  YS02006553YS02006556        0.36      0.36      0.44      0.01         0.01
  YS02006556YS02006558        0.40      0.40      0.45      0.01         0.01
  YS02006558YS02006561        0.17      0.35      0.17      0.51         0.17
  YS02006561YS02001783        0.08      0.08      0.27      0.01         0.01
  YS02163301YS02001633        0.49      0.49      0.52      0.01         0.01
  YS02163601YS02164001        0.42      0.42      0.53      0.27         0.01
  YS02164001YS02001641        0.41      0.42      0.41      0.57         0.41
  YSB1154YSB6556              0.46      0.46      0.58      0.01         0.01
  YSB1171HS02004479           0.38      0.38      0.58      0.01         0.01
  YSB1174YSB1171              0.50      0.50      0.80      0.01         0.01
  YSB6556YSB1171              0.46      0.46      0.94      0.01         0.01
  
  
  ***************
  Pumping Summary
  ***************
  
  ---------------------------------------------------------------------------------------------------------
                                                  Min       Avg       Max     Total     Power    % Time Off
                        Percent   Number of      Flow      Flow      Flow    Volume     Usage    Pump Curve
  Pump                 Utilized   Start-Ups       LPS       LPS       LPS  10^6 ltr     Kw-hr    Low   High
  ---------------------------------------------------------------------------------------------------------
  CC-R1                   14.98          30      0.00    683.00    683.00     2.946     51.44    0.0   56.0
  CC-R2                   15.39          32      0.00    683.00    683.00     3.028     52.14    0.0   68.8
  CC-S1                   19.43          21      0.00    200.00    200.00     1.119      8.08    0.0    0.0
  CC-S2                   17.20          30      0.00    200.00    200.00     0.991      7.28    0.0    0.0
  JK-R1                    3.09          13      0.00   1000.00   1000.00     0.891      7.09    0.0    0.0
  JK-R2                    3.20           9      0.00   1000.00   1000.00     0.920      7.50    0.0    0.0
  JK-S                    11.33          36      0.00    300.00    300.00     0.979     18.29    0.0    0.0
  XR-1                    97.91           2      0.00     95.00     95.00     2.679      9.62    0.0    0.0
  XR-2                    93.94           2      0.00     95.00     95.00     2.570      8.78    0.0    0.0
  XR-3                     0.00           1      0.00     95.00     95.00     0.000      0.00    0.0    0.0
  XR-4                     0.00           1      0.00     95.00     95.00     0.000      0.00    0.0    0.0
  

  Analysis begun on:  Sat Jun 17 02:02:49 2023
  Analysis ended on:  Sat Jun 17 02:03:00 2023
  Total elapsed time: 00:00:11