
  OWA STORM WATER MANAGEMENT MODEL - VERSION v5.1.14 (OWA 2022-07-31)
  --------------------------------------------------------------

  WARNING 04: minimum elevation drop used for Conduit WS02004404WS02004405
  WARNING 03: negative offset ignored for Link YS02001904YS02001907
  
  *********************************************************
  NOTE: The summary statistics displayed in this report are
  based on results found at every computational time step,  
  not just on results from each reporting time step.
  *********************************************************
  
  ****************
  Analysis Options
  ****************
  Flow Units ............... LPS
  Process Models:
    Rainfall/Runoff ........ YES
    RDII ................... NO
    Snowmelt ............... NO
    Groundwater ............ NO
    Flow Routing ........... YES
    Ponding Allowed ........ NO
    Water Quality .......... NO
  Infiltration Method ...... HORTON
  Flow Routing Method ...... DYNWAVE
  Surcharge Method ......... EXTRAN
  Starting Date ............ 08/28/2015 08:00:00
  Ending Date .............. 08/28/2015 16:00:00
  Antecedent Dry Days ...... 8.0
  Report Time Step ......... 00:01:00
  Wet Time Step ............ 00:01:00
  Dry Time Step ............ 00:01:00
  Routing Time Step ........ 30.00 sec
  Variable Time Step ....... YES
  Maximum Trials ........... 8
  Number of Threads ........ 2
  Head Tolerance ........... 0.001500 m
  
  
  **************************        Volume         Depth
  Runoff Quantity Continuity     hectare-m            mm
  **************************     ---------       -------
  Initial LID Storage ......         0.072         1.184
  Total Precipitation ......         3.693        60.969
  Evaporation Loss .........         0.000         0.000
  Infiltration Loss ........         0.201         3.311
  Surface Runoff ...........         2.824        46.614
  Final Storage ............         0.742        12.243
  Continuity Error (%) .....        -0.023
  
  
  **************************        Volume        Volume
  Flow Routing Continuity        hectare-m      10^6 ltr
  **************************     ---------     ---------
  Dry Weather Inflow .......         0.630         6.296
  Wet Weather Inflow .......         2.824        28.241
  Groundwater Inflow .......         0.000         0.000
  RDII Inflow ..............         0.000         0.000
  External Inflow ..........         0.105         1.045
  External Outflow .........         1.985        19.853
  Flooding Loss ............         1.356        13.559
  Evaporation Loss .........         0.000         0.000
  Exfiltration Loss ........         0.000         0.000
  Initial Stored Volume ....         0.303         3.031
  Final Stored Volume ......         0.524         5.236
  Continuity Error (%) .....        -0.090
  
  
  *************************
  Highest Continuity Errors
  *************************
  Node YS02001884 (4.94%)
  Node YS02001583 (-4.32%)
  Node HS02004842 (2.05%)
  Node YS02001774 (1.95%)
  Node HS02004817 (1.03%)
  
  
  ***************************
  Time-Step Critical Elements
  ***************************
  Link WS02006252WS02006251 (63.64%)
  Link WS02006280WS02006229 (16.16%)
  Link WS02006238WS02006235 (7.33%)
  Link YS02001791YS02001793 (3.38%)
  Link WS02003066WSF200 (1.39%)
  
  
  ********************************
  Highest Flow Instability Indexes
  ********************************
  Link WS02006113WS02006111 (26)
  Link WS02006256WS02006235 (15)
  Link WS02004404WS02004405 (14)
  Link WS02006238WS02006235 (13)
  Link WS02004403WS02004404 (11)
  
  
  *************************
  Routing Time Step Summary
  *************************
  Minimum Time Step           :     0.01 sec
  Average Time Step           :     1.96 sec
  Maximum Time Step           :     6.46 sec
  Percent in Steady State     :    -0.00
  Average Iterations per Step :     2.92
  Percent Not Converging      :     8.73
  
  
  ***************************
  Subcatchment Runoff Summary
  ***************************
  
  ------------------------------------------------------------------------------------------------------------------------------
                            Total      Total      Total      Total     Imperv       Perv      Total       Total     Peak  Runoff
                           Precip      Runon       Evap      Infil     Runoff     Runoff     Runoff      Runoff   Runoff   Coeff
  Subcatchment                 mm         mm         mm         mm         mm         mm         mm    10^6 ltr      LPS
  ------------------------------------------------------------------------------------------------------------------------------
  sub0                      60.97       0.00       0.00       0.97      55.46       3.30      58.75        0.05    41.67   0.964
  sub1                      60.97       0.00       0.00       1.48      47.53       4.54      52.06        0.35   254.96   0.854
  sub10                     60.97       0.00       0.00       0.94      44.54       3.02      47.56        0.52   402.90   0.780
  sub11                     60.97       0.00       0.00       0.86      41.39       2.82      44.22        0.51   420.55   0.725
  sub12                     60.97       0.00       0.00       1.50      42.08       4.93      47.01        0.41   357.50   0.771
  sub14                     60.97       0.00       0.00       0.93      39.20       3.03      42.24        0.40   324.19   0.693
  sub15                     60.97       0.00       0.00       4.27      35.24      11.18      46.43        0.80   572.29   0.761
  sub16                     60.97       0.00       0.00       4.52      34.38      12.80      47.18        0.49   392.59   0.774
  sub17                     60.97       0.00       0.00       4.85      37.94      13.42      51.36        0.44   340.21   0.842
  sub2                      60.97       0.00       0.00       6.79      34.74      14.10      48.84        0.46   271.75   0.801
  sub22                     60.97       0.00       0.00       7.60      32.90      17.79      50.69        3.20  2125.15   0.831
  sub23                     60.97       0.00       0.00       5.70      33.88      14.66      48.54        2.32  1670.03   0.796
  sub3                      60.97       0.00       0.00       7.29      34.40      13.42      47.82        1.08   578.72   0.784
  sub4                      60.97       0.00       0.00       1.62      46.80       4.32      51.12        1.07   621.22   0.838
  sub5                      60.97       0.00       0.00       0.84      45.98       2.70      48.68        0.55   413.85   0.798
  sub60                     60.97       0.00       0.00       1.34      40.49       4.31      44.79        0.59   486.21   0.735
  sub61                     60.97       0.00       0.00       2.06      40.45       6.42      46.87        0.86   709.40   0.769
  sub62                     60.97       0.00       0.00       0.91      43.12       2.93      46.05        1.26   962.08   0.755
  sub63                     60.97       0.00       0.00       3.79      34.65      10.69      45.33        1.03   801.91   0.744
  sub64                     60.97       0.00       0.00       1.82      39.45       5.31      44.76        1.08   781.59   0.734
  sub65                     60.97       0.00       0.00       1.67      42.57       4.85      47.42        1.31   914.44   0.778
  sub66                     60.97       0.00       0.00       4.47      33.50       9.55      43.05        2.01  1180.38   0.706
  sub67                     60.97       0.00       0.00       0.90      44.21       3.03      47.24        0.88   755.18   0.775
  sub68                     60.97       0.00       0.00       1.58      39.04       4.92      43.97        1.21   964.27   0.721
  sub69                     60.97       0.00       0.00       1.44      40.99       5.81      46.80        1.73  1182.25   0.768
  sub7                      60.97       0.00       0.00       0.99      42.02       3.26      45.28        0.15   127.09   0.743
  sub70                     60.97       0.00       0.00       4.93      32.84      12.04      44.88        1.30   676.81   0.736
  sub71                     60.97       0.00       0.00       0.84      39.17       2.65      41.82        1.09   789.02   0.686
  sub72                     60.97       0.00       0.00       0.80      42.31       2.46      44.77        0.62   407.36   0.734
  sub8                      60.97       0.00       0.00       0.97      40.83       3.16      44.00        0.28   227.96   0.722
  sub9                      60.97       0.00       0.00       0.94      39.59       3.06      42.65        0.21   166.06   0.700
  

  ***********************
  LID Performance Summary
  ***********************

  --------------------------------------------------------------------------------------------------------------------
                                         Total      Evap     Infil   Surface    Drain    Initial     Final  Continuity
                                        Inflow      Loss      Loss   Outflow   Outflow   Storage   Storage       Error
  Subcatchment      LID Control             mm        mm        mm        mm        mm        mm        mm           %
  --------------------------------------------------------------------------------------------------------------------
  sub1              GreenRoof            60.97      0.00      0.00      0.00      0.00      7.05     68.02       -0.00
  sub10             GreenRoof            60.97      0.00      0.00      0.00      0.00      7.05     68.02       -0.00
  sub11             GreenRoof            60.97      0.00      0.00      0.00      0.00      7.05     68.02       -0.00
  sub12             GreenRoof            60.97      0.00      0.00      0.00      0.00      7.05     68.02       -0.00
  sub14             GreenRoof            60.97      0.00      0.00      0.00      0.00      7.05     68.02       -0.00
  sub15             GreenRoof            60.97      0.00      0.00      0.00      0.00      7.05     68.02       -0.00
  sub16             GreenRoof            60.97      0.00      0.00      0.00      0.00      7.05     68.02       -0.00
  sub17             GreenRoof            60.97      0.00      0.00      0.00      0.00      7.05     68.02       -0.00
  sub2              GreenRoof            60.97      0.00      0.00      0.00      0.00      7.05     68.02       -0.00
  sub22             GreenRoof            60.97      0.00      0.00      0.00      0.00      7.05     68.02       -0.00
  sub23             GreenRoof            60.97      0.00      0.00      0.00      0.00      7.05     68.02       -0.00
  sub3              GreenRoof            60.97      0.00      0.00      0.00      0.00      7.05     68.02       -0.00
  sub4              GreenRoof            60.97      0.00      0.00      0.00      0.00      7.05     68.02       -0.00
  sub5              GreenRoof            60.97      0.00      0.00      0.00      0.00      7.05     68.02       -0.00
  sub60             GreenRoof            60.97      0.00      0.00      0.00      0.00      7.05     68.02       -0.00
  sub61             GreenRoof            60.97      0.00      0.00      0.00      0.00      7.05     68.02       -0.00
  sub62             GreenRoof            60.97      0.00      0.00      0.00      0.00      7.05     68.02       -0.00
  sub63             GreenRoof            60.97      0.00      0.00      0.00      0.00      7.05     68.02       -0.00
  sub64             GreenRoof            60.97      0.00      0.00      0.00      0.00      7.05     68.02       -0.00
  sub65             GreenRoof            60.97      0.00      0.00      0.00      0.00      7.05     68.02       -0.00
  sub66             GreenRoof            60.97      0.00      0.00      0.00      0.00      7.05     68.02       -0.00
  sub67             GreenRoof            60.97      0.00      0.00      0.00      0.00      7.05     68.02       -0.00
  sub68             GreenRoof            60.97      0.00      0.00      0.00      0.00      7.05     68.02       -0.00
  sub69             GreenRoof            60.97      0.00      0.00      0.00      0.00      7.05     68.02       -0.00
  sub7              GreenRoof            60.97      0.00      0.00      0.00      0.00      7.05     68.02       -0.00
  sub70             GreenRoof            60.97      0.00      0.00      0.00      0.00      7.05     68.02       -0.00
  sub71             GreenRoof            60.97      0.00      0.00      0.00      0.00      7.05     68.02       -0.00
  sub72             GreenRoof            60.97      0.00      0.00      0.00      0.00      7.05     68.02       -0.00
  sub8              GreenRoof            60.97      0.00      0.00      0.00      0.00      7.05     68.02       -0.00
  sub9              GreenRoof            60.97      0.00      0.00      0.00      0.00      7.05     68.02       -0.00
  
  ******************
  Node Depth Summary
  ******************
  
  ---------------------------------------------------------------------------------
                                 Average  Maximum  Maximum  Time of Max    Reported
                                   Depth    Depth      HGL   Occurrence   Max Depth
  Node                 Type       Meters   Meters   Meters  days hr:min      Meters
  ---------------------------------------------------------------------------------
  HS02004478           JUNCTION     0.17     1.59    10.82     0  02:11        1.58
  HS02004479           JUNCTION     0.24     1.68    10.89     0  02:09        1.67
  HS02004480           JUNCTION     0.21     1.66    10.90     0  02:09        1.64
  HS02004770           JUNCTION     0.22     1.42    11.25     0  02:06        1.42
  HS02004777           JUNCTION     0.25     1.48    11.28     0  02:06        1.45
  HS02004785           JUNCTION     0.14     1.49    11.39     0  02:06        1.35
  HS02004788           JUNCTION     0.12     1.42    11.32     0  02:06        1.35
  HS02004792           JUNCTION     0.16     1.60    11.12     0  02:06        1.60
  HS02004799           JUNCTION     0.26     1.76    10.97     0  02:09        1.76
  HS02004802           JUNCTION     0.27     1.80    10.93     0  02:11        1.80
  HS02004807           JUNCTION     0.24     1.92    11.09     0  02:09        1.92
  HS02004817           JUNCTION     0.55     2.44    11.29     0  02:09        2.37
  HS02004824           JUNCTION     0.13     2.01    11.41     0  02:09        1.97
  HS02004830           JUNCTION     0.13     2.03    11.50     0  02:09        1.92
  HS02004837           JUNCTION     0.11     1.96    11.54     0  02:09        1.83
  HS02004842           JUNCTION     0.41     2.22    11.49     0  02:09        2.16
  HS02004848           JUNCTION     0.09     2.05    11.65     0  02:09        1.84
  HS02004852           JUNCTION     0.09     2.12    11.63     0  02:09        1.88
  HS02004856           JUNCTION     0.15     2.07    11.50     0  02:09        1.95
  HS02004862           JUNCTION     0.10     2.00    11.38     0  02:09        1.94
  HS02004870           JUNCTION     0.10     1.97    11.26     0  02:09        1.92
  HS02004876           JUNCTION     0.14     2.04    11.07     0  02:09        2.01
  HS02004881           JUNCTION     0.09     1.78    10.81     0  02:09        1.76
  HS02004901           JUNCTION     0.23     1.42    11.24     0  02:06        1.42
  WS02001211           JUNCTION     0.63     0.82     5.65     0  02:16        0.82
  WS02001212           JUNCTION     0.37     0.58     5.64     0  02:17        0.58
  WS02001213           JUNCTION     0.58     0.87     5.64     0  02:17        0.87
  WS02003059           JUNCTION     0.64     0.94     5.63     0  02:17        0.94
  WS02003060           JUNCTION     0.35     0.69     5.62     0  02:14        0.69
  WS02003066           JUNCTION     0.20     0.46     6.01     0  02:13        0.46
  WS02003067           JUNCTION     0.50     0.89     6.21     0  02:13        0.89
  WS02003069           JUNCTION     0.40     0.78     5.37     0  02:15        0.78
  WS02003072           JUNCTION     0.46     0.82     5.19     0  02:15        0.82
  WS02003073           JUNCTION     0.27     0.52     4.58     0  02:16        0.52
  WS02004138           JUNCTION     0.13     0.14     7.39     0  00:32        0.14
  WS02004139           JUNCTION     0.57     0.75     5.66     0  02:16        0.75
  WS02004401           JUNCTION     0.68     2.19     8.19     0  01:56        1.91
  WS02004402           JUNCTION     0.70     2.17     8.13     0  01:56        1.83
  WS02004403           JUNCTION     0.71     2.09     8.02     0  01:56        1.76
  WS02004404           JUNCTION     0.78     2.07     7.92     0  01:56        1.77
  WS02004405           JUNCTION     0.77     1.97     7.82     0  01:56        1.72
  WS02004406           JUNCTION     0.77     1.66     7.49     0  01:56        1.59
  WS02004407           JUNCTION     0.22     0.96     7.28     0  02:13        0.96
  WS02004409           JUNCTION     0.45     1.41     7.18     0  02:13        1.40
  WS02004410           JUNCTION     0.46     1.32     7.04     0  02:13        1.30
  WS02004411           JUNCTION     0.47     1.22     6.90     0  02:13        1.22
  WS02004412           JUNCTION     0.48     1.11     6.75     0  02:13        1.11
  WS02004413           JUNCTION     0.63     1.15     6.62     0  02:13        1.15
  WS02006109           JUNCTION     0.83     2.64     9.26     0  02:06        2.64
  WS02006110           JUNCTION     0.79     2.76     9.34     0  01:56        2.40
  WS02006111           JUNCTION     0.33     2.68     9.39     0  01:56        1.78
  WS02006112           JUNCTION     0.87     2.68     8.56     0  01:56        2.44
  WS02006113           JUNCTION     0.40     2.68     9.58     0  01:56        1.85
  WS02006115           JUNCTION     0.58     2.34     8.48     0  01:56        2.01
  WS02006116           JUNCTION     0.66     2.30     8.34     0  01:56        2.00
  WS02006228           JUNCTION     0.86     3.03     9.68     0  02:14        3.03
  WS02006229           JUNCTION     0.85     3.22     9.92     0  02:12        3.22
  WS02006230           JUNCTION     0.78     2.65     9.39     0  02:03        2.65
  WS02006231           JUNCTION     0.54     2.19     9.31     0  02:17        2.19
  WS02006232           JUNCTION     0.63     2.18     9.22     0  02:03        2.18
  WS02006234           JUNCTION     0.51     1.96     9.12     0  02:02        1.96
  WS02006235           JUNCTION     0.52     2.00     9.16     0  02:41        2.00
  WS02006238           JUNCTION     0.55     2.03     9.18     0  02:41        2.03
  WS02006239           JUNCTION     0.49     1.92     9.13     0  02:35        1.92
  WS02006240           JUNCTION     0.45     1.84     9.14     0  02:35        1.84
  WS02006242           JUNCTION     0.49     1.55     8.82     0  02:00        1.55
  WS02006243           JUNCTION     0.39     1.48     8.90     0  02:35        1.48
  WS02006245           JUNCTION     0.39     1.34     8.82     0  01:55        1.29
  WS02006247           JUNCTION     0.40     1.35     8.85     0  02:35        1.35
  WS02006248           JUNCTION     0.35     1.10     8.69     0  01:55        1.10
  WS02006249           JUNCTION     0.38     1.09     8.69     0  01:55        1.09
  WS02006251           JUNCTION     0.44     2.20     9.87     0  02:08        2.14
  WS02006252           JUNCTION     0.33     1.50     9.74     0  00:00        1.50
  WS02006253           JUNCTION     0.50     3.52    11.16     0  01:56        3.02
  WS02006256           JUNCTION     0.81     2.35     9.28     0  00:00        2.35
  WS02006280           JUNCTION     0.22     1.75    10.02     0  02:11        1.73
  WS02006284           JUNCTION     0.50     1.95    10.35     0  02:11        1.95
  WS02006287           JUNCTION     0.23     1.74    10.70     0  02:12        1.73
  WSF200               JUNCTION     0.19     0.53     5.76     0  02:13        0.53
  YS02001580           JUNCTION     0.05     1.05     9.59     0  02:06        0.77
  YS02001583           JUNCTION     0.08     1.09     9.58     0  02:06        0.82
  YS02001586           JUNCTION     0.13     1.13     9.30     0  02:06        1.13
  YS02001590           JUNCTION     0.22     1.38     9.25     0  02:06        1.37
  YS02001593           JUNCTION     0.15     1.31     9.17     0  02:06        1.28
  YS02001596           JUNCTION     0.21     1.67     9.09     0  02:06        1.65
  YS02001600           JUNCTION     0.26     1.87     9.00     0  02:06        1.86
  YS02001601           JUNCTION     0.44     2.06     8.90     0  02:05        2.06
  YS02001602           JUNCTION     0.36     1.87     8.77     0  02:05        1.87
  YS02001605           JUNCTION     0.33     1.78     8.68     0  02:14        1.78
  YS02001607           JUNCTION     0.34     1.65     8.49     0  02:23        1.64
  YS02001610           JUNCTION     0.39     1.68     8.48     0  02:06        1.68
  YS02001613           JUNCTION     0.35     1.67     8.51     0  02:08        1.66
  YS02001616           JUNCTION     0.28     1.61     8.52     0  02:08        1.60
  YS02001619           JUNCTION     0.26     1.61     8.54     0  02:08        1.60
  YS02001622           JUNCTION     0.25     1.58     8.49     0  02:08        1.57
  YS02001625           JUNCTION     0.51     1.78     8.38     0  02:08        1.78
  YS02001629           JUNCTION     0.36     1.85     8.40     0  02:06        1.85
  YS02001633           JUNCTION     0.44     2.08     8.53     0  02:35        2.08
  YS02001641           JUNCTION     0.43     1.97     8.41     0  02:10        1.97
  YS02001644           JUNCTION     0.43     1.92     8.35     0  02:10        1.92
  YS02001647           JUNCTION     0.23     1.77     8.38     0  02:11        1.73
  YS02001649           JUNCTION     0.37     2.02     8.41     0  02:11        1.94
  YS02001652           JUNCTION     0.19     1.93     8.52     0  02:11        1.77
  YS02001655           JUNCTION     0.12     1.87     8.72     0  02:10        1.55
  YS02001658           JUNCTION     0.09     1.85     9.00     0  02:10        1.29
  YS02001661           JUNCTION     0.13     1.59     8.99     0  02:11        1.06
  YS02001664           JUNCTION     0.04     0.63     8.55     0  02:11        0.59
  YS02001745           JUNCTION     0.05     0.82     8.33     0  02:10        0.80
  YS02001748           JUNCTION     0.08     1.80     8.88     0  02:10        1.21
  YS02001751           JUNCTION     0.10     1.75     8.63     0  02:10        1.38
  YS02001754           JUNCTION     0.17     1.77     8.38     0  02:10        1.63
  YS02001757           JUNCTION     0.46     2.03     8.29     0  02:10        1.98
  YS02001759           JUNCTION     0.38     1.99     8.36     0  02:11        1.96
  YS02001762           JUNCTION     0.35     1.99     8.39     0  02:10        1.95
  YS02001765           JUNCTION     0.31     1.97     8.42     0  02:10        1.91
  YS02001767           JUNCTION     0.28     1.94     8.42     0  02:10        1.89
  YS02001770           JUNCTION     0.28     1.95     8.44     0  02:11        1.94
  YS02001774           JUNCTION     0.34     2.01     8.43     0  02:10        2.01
  YS02001779           JUNCTION     0.13     1.68     8.37     0  02:09        1.68
  YS02001783           JUNCTION     0.20     1.98     8.12     0  02:23        1.39
  YS02001784           JUNCTION     0.22     1.97     8.04     0  02:23        1.35
  YS02001786           JUNCTION     0.20     1.86     7.89     0  02:23        1.21
  YS02001788           JUNCTION     0.16     1.80     7.78     0  02:23        1.09
  YS02001790           JUNCTION     0.21     1.87     7.51     0  02:23        1.31
  YS02001791           JUNCTION     0.19     1.59     7.06     0  02:23        1.26
  YS02001793           JUNCTION     0.23     1.89     6.72     0  02:23        1.79
  YS02001882           JUNCTION     0.24     1.72     8.43     0  02:09        1.64
  YS02001884           JUNCTION     0.32     1.80     8.42     0  02:09        1.74
  YS02001887           JUNCTION     0.40     1.85     8.38     0  02:09        1.82
  YS02001890           JUNCTION     0.43     1.81     8.32     0  02:09        1.81
  YS02001895           JUNCTION     0.21     1.57     8.31     0  02:14        1.56
  YS02001898           JUNCTION     0.21     1.57     8.30     0  02:09        1.56
  YS02001901           JUNCTION     0.32     1.68     8.29     0  02:10        1.68
  YS02001904           JUNCTION     0.30     1.64     8.27     0  02:17        1.64
  YS02001907           JUNCTION     0.62     1.96     8.25     0  02:09        1.96
  YS02001910           JUNCTION     0.42     1.96     8.47     0  02:10        1.84
  YS02001915           JUNCTION     0.24     1.91     8.63     0  02:10        1.70
  YS02001918           JUNCTION     0.11     1.81     8.88     0  02:10        1.38
  YS02001920           JUNCTION     0.19     2.14     9.15     0  02:10        1.45
  YS02001923           JUNCTION     0.08     2.03     9.29     0  02:10        1.21
  YS02001926           JUNCTION     0.12     1.90     9.35     0  02:10        1.04
  YS02001929           JUNCTION     0.06     1.78     9.47     0  02:10        0.80
  YS02006553           JUNCTION     0.62     2.07     8.35     0  02:23        2.00
  YS02006556           JUNCTION     0.60     2.15     8.47     0  02:23        1.99
  YS02006558           JUNCTION     0.64     2.24     8.51     0  02:23        2.04
  YS02006561           JUNCTION     0.12     1.53     8.19     0  02:23        1.00
  YS02163301           JUNCTION     0.38     1.95     8.47     0  02:10        1.95
  YS02163601           JUNCTION     0.48     2.08     8.48     0  02:10        2.08
  YS02164001           JUNCTION     0.41     1.99     8.45     0  02:10        1.99
  YSB1154              JUNCTION     0.38     1.94    11.00     0  02:11        1.92
  YSB1171              JUNCTION     0.53     1.95    10.85     0  02:09        1.95
  YSB1174              JUNCTION     0.33     1.82    10.93     0  02:11        1.81
  YSB6556              JUNCTION     0.28     1.75    10.92     0  02:11        1.74
  CC-1                 OUTFALL      0.00     0.00     0.00     0  00:00        0.00
  CC-2                 OUTFALL      0.00     0.00     0.00     0  00:00        0.00
  JK-1                 OUTFALL      0.00     0.00     0.00     0  00:00        0.00
  JK-2                 OUTFALL      0.00     0.00     0.00     0  00:00        0.00
  WSC                  OUTFALL      0.27     0.52     1.19     0  02:16        0.52
  CC-storage           STORAGE      1.10     1.67     7.17     0  02:32        1.67
  JK-storage           STORAGE      3.01     5.80     6.60     0  02:23        5.80
  XR-storage           STORAGE      7.98     9.26     7.26     0  08:00        9.26
  
  
  *******************
  Node Inflow Summary
  *******************
  
  -------------------------------------------------------------------------------------------------
                                  Maximum  Maximum                  Lateral       Total        Flow
                                  Lateral    Total  Time of Max      Inflow      Inflow     Balance
                                   Inflow   Inflow   Occurrence      Volume      Volume       Error
  Node                 Type           LPS      LPS  days hr:min    10^6 ltr    10^6 ltr     Percent
  -------------------------------------------------------------------------------------------------
  HS02004478           JUNCTION      0.00  2306.30     0  02:12           0        7.45      -0.011
  HS02004479           JUNCTION      0.00   444.13     0  02:09           0       0.688       0.127
  HS02004480           JUNCTION      0.00  2107.15     0  02:07           0        5.58       0.039
  HS02004770           JUNCTION   1670.03  1670.03     0  02:13        2.32        2.52       0.116
  HS02004777           JUNCTION      0.03   751.39     0  02:06    0.000864        1.63       0.316
  HS02004785           JUNCTION      0.15   766.73     0  02:05     0.00432        1.63       0.033
  HS02004788           JUNCTION    573.96   823.81     0  02:06       0.847        2.47      -0.020
  HS02004792           JUNCTION   2125.43  2940.61     0  02:13        3.21        5.68       0.006
  HS02004799           JUNCTION    324.19  1769.78     0  02:07       0.402        5.03       0.054
  HS02004802           JUNCTION      0.00  1233.03     0  02:15           0        1.97       0.201
  HS02004807           JUNCTION    420.55  1455.95     0  02:14       0.514        2.05       0.197
  HS02004817           JUNCTION      0.60  1054.05     0  02:14      0.0173        1.59       1.045
  HS02004824           JUNCTION    621.27  1052.71     0  02:14        1.07        1.74       0.024
  HS02004830           JUNCTION      0.15   657.98     0  02:06     0.00432       0.832       0.127
  HS02004837           JUNCTION    409.25   831.38     0  02:06       0.708        1.08       0.040
  HS02004842           JUNCTION      0.00   831.28     0  02:07           0       0.632       2.097
  HS02004848           JUNCTION    578.72  1085.59     0  02:08        1.08        1.54      -0.011
  HS02004852           JUNCTION      0.00  1074.90     0  02:08           0        1.38      -0.006
  HS02004856           JUNCTION    166.06  1171.78     0  02:08       0.205        1.59       0.040
  HS02004862           JUNCTION    271.95  1221.89     0  02:08       0.461        2.05      -0.010
  HS02004870           JUNCTION    227.96  1329.24     0  02:08       0.281        2.33       0.010
  HS02004876           JUNCTION    254.96  1472.06     0  02:13       0.346        2.67       0.021
  HS02004881           JUNCTION    127.09  1599.37     0  02:13       0.153        2.83       0.008
  HS02004901           JUNCTION    392.59   640.95     0  02:13       0.494       0.755       0.220
  WS02001211           JUNCTION      7.35   208.45     0  02:03       0.212        5.44       0.611
  WS02001212           JUNCTION      0.00   211.37     0  03:16           0        5.41       0.290
  WS02001213           JUNCTION      0.00   216.51     0  03:17           0        5.39       0.338
  WS02003059           JUNCTION      0.00   223.26     0  03:17           0        5.38       0.605
  WS02003060           JUNCTION     16.53  1516.93     0  02:14       0.476        13.1       0.122
  WS02003066           JUNCTION      0.00  1323.48     0  02:13           0        7.29       0.027
  WS02003067           JUNCTION      0.00  1322.43     0  02:14           0        7.29       0.070
  WS02003069           JUNCTION      0.32  1517.56     0  02:14     0.00922        13.1       0.129
  WS02003072           JUNCTION      0.00  1517.35     0  02:15           0        13.1       0.173
  WS02003073           JUNCTION      1.82  1519.78     0  02:15      0.0524        13.1       0.183
  WS02004138           JUNCTION      0.00   380.00     0  00:00           0        5.25       0.054
  WS02004139           JUNCTION      0.32   190.32     0  00:32     0.00924        5.26       0.509
  WS02004401           JUNCTION      0.00  1322.59     0  02:13           0        7.41       0.156
  WS02004402           JUNCTION      0.00  1323.30     0  02:13           0         7.4       0.156
  WS02004403           JUNCTION      0.00  1323.24     0  02:13           0        7.39       0.150
  WS02004404           JUNCTION      0.16  1323.69     0  02:13     0.00467        7.38       0.128
  WS02004405           JUNCTION      0.04  1324.01     0  02:13      0.0011        7.37       0.181
  WS02004406           JUNCTION      0.00  1323.81     0  02:13           0        7.36       0.305
  WS02004407           JUNCTION      0.00  1323.52     0  02:13           0        7.34       0.030
  WS02004409           JUNCTION      0.00  1322.52     0  02:14           0        7.34       0.064
  WS02004410           JUNCTION      0.00  1322.65     0  02:13           0        7.33       0.091
  WS02004411           JUNCTION      0.00  1322.63     0  02:13           0        7.33       0.106
  WS02004412           JUNCTION      0.00  1322.46     0  02:13           0        7.32       0.134
  WS02004413           JUNCTION      0.00  1322.57     0  02:14           0        7.31       0.220
  WS02006109           JUNCTION      1.23  1289.94     0  02:12      0.0354        7.24       0.165
  WS02006110           JUNCTION      0.00  1120.47     0  02:27           0        7.02       0.116
  WS02006111           JUNCTION      0.00  1120.95     0  02:27           0        7.01       0.012
  WS02006112           JUNCTION    340.21  1322.66     0  02:13       0.441        7.45       0.255
  WS02006113           JUNCTION      0.00  1120.77     0  02:27           0        7.01       0.033
  WS02006115           JUNCTION      0.00  1323.02     0  02:13           0        7.43       0.108
  WS02006116           JUNCTION      0.00  1322.95     0  02:12           0        7.42       0.098
  WS02006228           JUNCTION      0.00  1289.02     0  02:12           0        7.21       0.084
  WS02006229           JUNCTION      0.00  2307.81     0  02:12           0        9.14       0.087
  WS02006230           JUNCTION     10.28  1027.39     0  02:12       0.296        3.66       0.240
  WS02006231           JUNCTION      0.00   453.35     0  02:09           0         2.6      -0.162
  WS02006232           JUNCTION      0.00   453.44     0  02:08           0         2.6       0.297
  WS02006234           JUNCTION      0.00   453.16     0  02:09           0        2.59      -0.237
  WS02006235           JUNCTION      0.00   424.23     0  03:10           0        2.61       0.317
  WS02006238           JUNCTION      0.00   416.22     0  02:22           0        2.37      -0.267
  WS02006239           JUNCTION      0.00   415.44     0  02:22           0        2.35      -0.240
  WS02006240           JUNCTION      0.00   415.09     0  02:22           0        2.33      -0.009
  WS02006242           JUNCTION      0.00   415.28     0  02:22           0        2.32       0.028
  WS02006243           JUNCTION      0.00   389.35     0  03:22           0        1.99       0.168
  WS02006245           JUNCTION      0.00   394.03     0  03:21           0           2       0.698
  WS02006247           JUNCTION      0.00   403.88     0  03:22           0           2       0.075
  WS02006248           JUNCTION      0.00   425.48     0  03:22           0        2.21      -0.156
  WS02006249           JUNCTION      0.00  1364.15     0  02:13           0        4.82       0.244
  WS02006251           JUNCTION      0.08  1642.00     0  02:13     0.00222        4.94      -0.021
  WS02006252           JUNCTION      0.00   480.27     0  02:13           0        2.34      -0.044
  WS02006253           JUNCTION     41.67  1641.43     0  02:13      0.0476        2.91       0.017
  WS02006256           JUNCTION      0.00   300.00     0  00:00           0       0.911      -0.268
  WS02006280           JUNCTION      0.00  2305.87     0  02:12           0        7.43       0.015
  WS02006284           JUNCTION      0.10  2306.34     0  02:12     0.00275        7.43       0.001
  WS02006287           JUNCTION      0.00  2305.90     0  02:12           0        7.43       0.011
  WSF200               JUNCTION      0.00  1323.80     0  02:13           0        7.28       0.018
  YS02001580           JUNCTION      0.00   116.87     0  02:06           0       0.004      -4.424
  YS02001583           JUNCTION      0.00   165.89     0  02:06           0       0.015      -4.143
  YS02001586           JUNCTION    676.81   676.81     0  02:15         1.3        1.31       0.099
  YS02001590           JUNCTION      0.00   318.28     0  02:18           0        1.07      -0.036
  YS02001593           JUNCTION      0.00   318.06     0  02:17           0        1.07       0.011
  YS02001596           JUNCTION      0.00   317.97     0  02:26           0        1.07       0.003
  YS02001600           JUNCTION      0.00   318.06     0  02:10           0        1.07       0.012
  YS02001601           JUNCTION   1182.25  1499.61     0  02:14        1.73         2.8       0.025
  YS02001602           JUNCTION      0.00   516.67     0  02:05           0        1.86       0.017
  YS02001605           JUNCTION      0.00   516.50     0  02:05           0        1.78       0.011
  YS02001607           JUNCTION      0.00   516.37     0  02:05           0        1.78       0.104
  YS02001610           JUNCTION      0.00   617.38     0  02:14           0        1.88       0.113
  YS02001613           JUNCTION      0.00   515.16     0  02:05           0        1.56       0.103
  YS02001616           JUNCTION      0.00   518.25     0  02:05           0        1.56       0.026
  YS02001619           JUNCTION   1180.38  1180.38     0  02:14        2.01        3.46      -0.003
  YS02001622           JUNCTION      0.00   933.74     0  02:13           0        3.35       0.002
  YS02001625           JUNCTION      0.00  1235.25     0  02:15           0        3.46       0.255
  YS02001629           JUNCTION      0.00   930.35     0  02:05           0        2.81       0.016
  YS02001633           JUNCTION    914.64  1367.11     0  02:08        1.31        3.97       0.090
  YS02001641           JUNCTION      0.00  1363.05     0  02:08           0        3.83       0.075
  YS02001644           JUNCTION    781.63  1752.11     0  02:08        1.08        4.91       0.072
  YS02001647           JUNCTION      0.00  1752.64     0  02:08           0        4.65       0.004
  YS02001649           JUNCTION      0.00  1975.50     0  02:07           0        5.68       0.116
  YS02001652           JUNCTION      0.00   807.08     0  02:14           0        1.04      -0.118
  YS02001655           JUNCTION      0.15   807.41     0  02:14     0.00443        1.03       0.063
  YS02001658           JUNCTION      0.00   807.26     0  02:14           0        1.03      -0.003
  YS02001661           JUNCTION      0.00   804.36     0  02:13           0        1.03       0.018
  YS02001664           JUNCTION    801.91   801.91     0  02:13        1.03        1.03      -0.011
  YS02001745           JUNCTION    486.22   486.22     0  02:13       0.589        0.59       0.231
  YS02001748           JUNCTION      0.04   583.14     0  02:10      0.0013       0.592      -0.331
  YS02001751           JUNCTION      0.01   501.36     0  02:12    0.000317       0.602       0.149
  YS02001754           JUNCTION      0.26   502.63     0  02:12     0.00749       0.625      -0.189
  YS02001757           JUNCTION      0.00  3164.03     0  02:11           0        8.35       0.405
  YS02001759           JUNCTION    709.44  1288.78     0  02:13       0.861         2.1       0.228
  YS02001762           JUNCTION      0.00   680.11     0  02:17           0        1.24       0.292
  YS02001765           JUNCTION      0.00   679.49     0  02:17           0        1.23       0.266
  YS02001767           JUNCTION      0.54   679.24     0  02:17      0.0154        1.22       0.258
  YS02001770           JUNCTION    962.24   962.24     0  02:13        1.27        1.34       0.129
  YS02001774           JUNCTION      0.00   414.82     0  02:09           0       0.176       1.990
  YS02001779           JUNCTION      0.01   419.55     0  02:09    0.000144        0.12      -0.788
  YS02001783           JUNCTION      0.00  1162.33     0  02:12           0        3.11       0.008
  YS02001784           JUNCTION      1.06  1163.54     0  02:13      0.0305        3.14       0.021
  YS02001786           JUNCTION      0.06  1163.67     0  02:11     0.00162        3.14       0.021
  YS02001788           JUNCTION      0.07  1163.68     0  02:11     0.00204        3.14      -0.003
  YS02001790           JUNCTION      0.15  1173.79     0  02:12     0.00446        3.15       0.009
  YS02001791           JUNCTION      0.00  1293.32     0  02:12           0        3.15      -0.055
  YS02001793           JUNCTION      0.00  1244.05     0  02:16           0        3.15      -0.015
  YS02001882           JUNCTION      0.00    52.38     0  02:08           0      0.0124       4.451
  YS02001884           JUNCTION      0.00    78.53     0  02:07           0      0.0483       5.194
  YS02001887           JUNCTION    755.63   755.65     0  02:13       0.892       0.925       0.469
  YS02001890           JUNCTION      0.00   755.20     0  02:13           0       0.884       0.562
  YS02001895           JUNCTION      0.00   517.51     0  02:16           0       0.826       0.169
  YS02001898           JUNCTION      0.00   517.55     0  02:16           0       0.825       0.009
  YS02001901           JUNCTION      0.00   517.42     0  02:15           0       0.827       0.377
  YS02001904           JUNCTION      0.00   517.64     0  02:16           0       0.832       0.319
  YS02001907           JUNCTION      0.00  1764.58     0  02:13           0        2.61       0.680
  YS02001910           JUNCTION      0.00  1250.94     0  02:13           0        1.79       0.394
  YS02001915           JUNCTION    789.04  1250.50     0  02:13        1.09        1.83       0.091
  YS02001918           JUNCTION      0.00   460.86     0  02:13           0       0.766       0.021
  YS02001920           JUNCTION      2.87   461.30     0  02:14      0.0827       0.749       0.095
  YS02001923           JUNCTION      0.04   451.74     0  02:13     0.00109        0.65      -0.152
  YS02001926           JUNCTION      0.05   658.19     0  02:10      0.0015       0.631       0.071
  YS02001929           JUNCTION    407.36   461.11     0  02:09       0.616       0.618      -0.049
  YS02006553           JUNCTION      0.00   790.03     0  02:23           0        1.92       0.619
  YS02006556           JUNCTION      0.00   790.96     0  02:23           0        1.93       0.405
  YS02006558           JUNCTION    965.15  1162.70     0  02:11        1.24        3.14       0.111
  YS02006561           JUNCTION      0.00  1162.87     0  02:11           0        3.11      -0.002
  YS02163301           JUNCTION      0.00   928.67     0  02:08           0         2.8       0.056
  YS02163601           JUNCTION      0.11  1365.88     0  02:08     0.00317        3.83       0.132
  YS02164001           JUNCTION      0.00  1364.84     0  02:08           0        3.83       0.063
  YSB1154              JUNCTION    413.85   413.85     0  02:13       0.552       0.552       0.265
  YSB1171              JUNCTION      0.00   975.71     0  02:13           0        1.04       0.605
  YSB1174              JUNCTION    357.50   357.50     0  02:13       0.411       0.411       0.304
  YSB6556              JUNCTION      0.00   413.90     0  02:13           0       0.553       0.207
  CC-1                 OUTFALL       0.00   683.00     0  00:00           0        2.96       0.000
  CC-2                 OUTFALL       0.00   683.00     0  00:00           0        2.09       0.000
  JK-1                 OUTFALL       0.00  1000.00     0  00:00           0        1.15       0.000
  JK-2                 OUTFALL       0.00  1000.00     0  00:00           0       0.569       0.000
  WSC                  OUTFALL       0.00  1520.94     0  02:16           0        13.1       0.000
  CC-storage           STORAGE       0.00  3164.94     0  02:11           0        10.5       0.098
  JK-storage           STORAGE       0.00  1279.84     0  02:12           0         3.3       0.147
  XR-storage           STORAGE     200.00   200.00     0  00:00        5.76        6.36       0.001
  
  
  **********************
  Node Surcharge Summary
  **********************
  
  Surcharging occurs when water rises above the top of the highest conduit.
  ---------------------------------------------------------------------
                                               Max. Height   Min. Depth
                                   Hours       Above Crown    Below Rim
  Node                 Type      Surcharged         Meters       Meters
  ---------------------------------------------------------------------
  HS02004478           JUNCTION        0.40          0.671        0.269
  HS02004479           JUNCTION        0.51          0.882        0.168
  HS02004480           JUNCTION        0.55          0.947        0.153
  HS02004770           JUNCTION        0.47          0.720        0.000
  HS02004777           JUNCTION        0.47          0.780        0.000
  HS02004785           JUNCTION        0.43          0.790        0.000
  HS02004788           JUNCTION        0.42          0.720        0.000
  HS02004792           JUNCTION        0.52          0.900        0.000
  HS02004799           JUNCTION        0.63          1.060        0.000
  HS02004802           JUNCTION        0.55          1.093        0.117
  HS02004807           JUNCTION        0.53          1.220        0.000
  HS02004817           JUNCTION        1.02          1.740        0.000
  HS02004824           JUNCTION        0.42          1.310        0.000
  HS02004830           JUNCTION        0.39          1.330        0.000
  HS02004837           JUNCTION        0.36          1.264        0.076
  HS02004842           JUNCTION        0.48          1.520        0.000
  HS02004848           JUNCTION        0.32          1.350        0.020
  HS02004852           JUNCTION        0.35          1.419        0.001
  HS02004856           JUNCTION        0.33          1.300        0.000
  HS02004862           JUNCTION        0.36          1.300        0.000
  HS02004870           JUNCTION        0.38          1.270        0.130
  HS02004876           JUNCTION        0.44          1.344        0.216
  HS02004881           JUNCTION        0.42          1.077        0.373
  HS02004901           JUNCTION        0.48          0.720        0.000
  WS02004401           JUNCTION        1.29          1.191        0.469
  WS02004402           JUNCTION        1.31          1.173        0.567
  WS02004403           JUNCTION        1.31          1.095        0.935
  WS02004404           JUNCTION        1.39          1.074        1.706
  WS02004405           JUNCTION        1.38          0.969        1.831
  WS02004406           JUNCTION        1.36          0.656        1.794
  WS02004409           JUNCTION        0.83          0.411        1.949
  WS02004410           JUNCTION        0.80          0.317        2.223
  WS02004411           JUNCTION        0.74          0.219        2.311
  WS02004412           JUNCTION        0.65          0.115        2.195
  WS02004413           JUNCTION        1.07          0.151        2.049
  WS02006109           JUNCTION        1.79          1.820        0.000
  WS02006110           JUNCTION        1.52          1.850        0.000
  WS02006111           JUNCTION        1.04          1.870        0.000
  WS02006112           JUNCTION        1.67          1.680        0.000
  WS02006113           JUNCTION        1.06          1.884        0.046
  WS02006115           JUNCTION        1.26          1.328        0.922
  WS02006116           JUNCTION        1.27          1.239        1.051
  WS02006228           JUNCTION        1.79          2.200        0.000
  WS02006229           JUNCTION        0.79          1.045        0.025
  WS02006230           JUNCTION        1.36          1.570        0.000
  WS02006231           JUNCTION        1.38          1.480        0.050
  WS02006232           JUNCTION        1.64          1.480        0.000
  WS02006234           JUNCTION        1.45          1.240        0.000
  WS02006235           JUNCTION        1.50          1.290        0.000
  WS02006238           JUNCTION        1.54          1.312        0.118
  WS02006239           JUNCTION        1.45          1.177        0.113
  WS02006240           JUNCTION        1.42          1.133        0.257
  WS02006242           JUNCTION        1.48          0.820        0.000
  WS02006243           JUNCTION        1.37          0.770        0.000
  WS02006245           JUNCTION        1.35          0.625        0.225
  WS02006247           JUNCTION        1.35          0.637        0.123
  WS02006248           JUNCTION        1.32          0.380        0.000
  WS02006249           JUNCTION        1.33          0.390        0.000
  WS02006251           JUNCTION        1.23          1.168        0.012
  WS02006252           JUNCTION        1.41          1.100        0.000
  WS02006253           JUNCTION        1.23          2.480        0.000
  WS02006256           JUNCTION        7.99          2.050        0.000
  WS02006280           JUNCTION        0.64          0.696        0.084
  WS02006284           JUNCTION        0.57          0.667        0.133
  WS02006287           JUNCTION        0.49          0.742        0.148
  YS02001580           JUNCTION        0.46          0.450        0.000
  YS02001583           JUNCTION        0.46          0.447        0.053
  YS02001586           JUNCTION        0.55          0.510        0.000
  YS02001590           JUNCTION        0.62          0.735        0.015
  YS02001593           JUNCTION        0.61          0.688        0.152
  YS02001596           JUNCTION        0.71          0.941        0.129
  YS02001600           JUNCTION        0.84          1.188        0.002
  YS02001601           JUNCTION        1.17          1.440        0.000
  YS02001602           JUNCTION        1.05          1.270        0.000
  YS02001605           JUNCTION        1.00          1.180        0.000
  YS02001607           JUNCTION        0.60          0.645        0.035
  YS02001610           JUNCTION        0.62          0.680        0.000
  YS02001613           JUNCTION        0.59          0.669        0.031
  YS02001616           JUNCTION        0.55          0.610        0.000
  YS02001619           JUNCTION        0.54          0.610        0.000
  YS02001622           JUNCTION        0.54          0.583        0.037
  YS02001625           JUNCTION        0.70          0.780        0.000
  YS02001629           JUNCTION        0.51          0.470        0.000
  YS02001633           JUNCTION        0.72          1.060        0.000
  YS02001641           JUNCTION        0.68          0.970        0.130
  YS02001644           JUNCTION        0.64          0.920        0.000
  YS02001647           JUNCTION        0.47          0.772        0.128
  YS02001649           JUNCTION        0.58          1.025        0.025
  YS02001652           JUNCTION        0.42          0.896        0.234
  YS02001655           JUNCTION        0.30          0.867        0.333
  YS02001658           JUNCTION        0.16          0.854        0.446
  YS02001661           JUNCTION        0.01          0.515        0.875
  YS02001748           JUNCTION        0.12          0.718        0.472
  YS02001751           JUNCTION        0.22          0.748        0.452
  YS02001754           JUNCTION        0.35          0.719        0.431
  YS02001757           JUNCTION        0.64          1.025        0.185
  YS02001759           JUNCTION        0.55          0.995        0.215
  YS02001762           JUNCTION        0.52          0.986        0.164
  YS02001765           JUNCTION        0.49          0.966        0.134
  YS02001767           JUNCTION        0.46          0.936        0.094
  YS02001770           JUNCTION        0.44          0.917        0.003
  YS02001774           JUNCTION        0.50          1.010        0.040
  YS02001779           JUNCTION        0.34          0.680        0.000
  YS02001783           JUNCTION        0.51          1.180        0.420
  YS02001784           JUNCTION        0.52          1.174        0.316
  YS02001786           JUNCTION        0.48          1.057        0.373
  YS02001788           JUNCTION        0.24          1.001        0.479
  YS02001790           JUNCTION        0.56          1.065        0.092
  YS02001791           JUNCTION        0.70          0.791        1.129
  YS02001793           JUNCTION        0.79          0.886        1.714
  YS02001882           JUNCTION        0.39          0.716        0.114
  YS02001884           JUNCTION        0.39          0.740        0.130
  YS02001887           JUNCTION        0.42          0.797        0.153
  YS02001890           JUNCTION        0.44          0.760        0.000
  YS02001895           JUNCTION        0.38          0.567        0.183
  YS02001898           JUNCTION        0.37          0.536        0.204
  YS02001901           JUNCTION        0.41          0.682        0.188
  YS02001904           JUNCTION        0.40          0.643        0.207
  YS02001907           JUNCTION        0.60          0.950        0.000
  YS02001910           JUNCTION        0.45          0.964        0.136
  YS02001915           JUNCTION        0.38          0.910        0.090
  YS02001918           JUNCTION        0.30          0.810        0.000
  YS02001920           JUNCTION        0.31          1.140        0.000
  YS02001923           JUNCTION        0.03          0.820        0.000
  YS02001926           JUNCTION        0.04          0.900        0.000
  YS02001929           JUNCTION        0.01          0.780        0.000
  YS02006553           JUNCTION        0.62          1.066        0.124
  YS02006556           JUNCTION        0.53          1.114        0.236
  YS02006558           JUNCTION        0.52          1.143        0.257
  YS02006561           JUNCTION        0.32          0.728        0.422
  YS02163301           JUNCTION        0.71          0.951        0.079
  YS02163601           JUNCTION        0.75          1.080        0.000
  YS02164001           JUNCTION        0.68          0.995        0.105
  YSB1154              JUNCTION        0.72          1.245        0.155
  YSB1171              JUNCTION        0.73          1.100        0.000
  YSB1174              JUNCTION        0.66          1.121        0.129
  YSB6556              JUNCTION        0.61          1.055        0.045
  
  
  *********************
  Node Flooding Summary
  *********************
  
  Flooding refers to all water that overflows a node, whether it ponds or not.
  --------------------------------------------------------------------------
                                                             Total   Maximum
                                 Maximum   Time of Max       Flood    Ponded
                        Hours       Rate    Occurrence      Volume     Depth
  Node                 Flooded       LPS   days hr:min    10^6 ltr    Meters
  --------------------------------------------------------------------------
  HS02004770              0.31   1172.83      0  02:13       0.627     0.000
  HS02004777              0.01     49.28      0  02:06       0.000     0.000
  HS02004785              0.01    103.26      0  02:06       0.000     0.000
  HS02004788              0.01    215.98      0  02:06       0.001     0.000
  HS02004792              0.31   1798.46      0  02:13       1.047     0.000
  HS02004799              0.13    200.34      0  02:12       0.055     0.000
  HS02004807              0.07    224.86      0  02:14       0.034     0.000
  HS02004817              0.01     11.22      0  02:09       0.000     0.000
  HS02004824              0.01     12.96      0  02:09       0.000     0.000
  HS02004830              0.01      9.52      0  02:09       0.000     0.000
  HS02004842              0.01     77.54      0  02:09       0.001     0.000
  HS02004856              0.01    450.79      0  02:09       0.003     0.000
  HS02004862              0.01     79.45      0  02:09       0.000     0.000
  HS02004901              0.37    640.92      0  02:13       0.553     0.000
  WS02006109              0.34    306.72      0  02:13       0.212     0.000
  WS02006110              0.01      9.94      0  01:56       0.000     0.000
  WS02006111              0.01     52.57      0  01:56       0.000     0.000
  WS02006112              0.01     22.81      0  01:56       0.000     0.000
  WS02006228              0.01      0.51      0  02:14       0.000     0.000
  WS02006230              0.58    574.55      0  02:12       0.782     0.000
  WS02006232              0.13      1.31      0  02:36       0.000     0.000
  WS02006234              0.63    128.43      0  02:28       0.198     0.000
  WS02006235              0.01      0.13      0  02:41       0.000     0.000
  WS02006242              0.72    137.63      0  02:22       0.313     0.000
  WS02006243              0.01      0.16      0  02:35       0.000     0.000
  WS02006248              0.99    342.54      0  02:03       1.026     0.000
  WS02006249              1.23   1303.02      0  02:13       3.404     0.000
  WS02006252              0.38    480.09      0  02:13       0.310     0.000
  WS02006253              0.01    192.72      0  01:56       0.000     0.000
  WS02006256              0.83    293.19      0  00:00       0.481     0.000
  YS02001580              0.01     85.34      0  02:06       0.000     0.000
  YS02001586              0.36    359.12      0  02:15       0.230     0.000
  YS02001601              0.49   1101.77      0  02:14       0.939     0.000
  YS02001602              0.41     62.04      0  02:17       0.083     0.000
  YS02001605              0.01      0.11      0  02:14       0.000     0.000
  YS02001610              0.36    616.96      0  02:15       0.431     0.000
  YS02001616              0.01      2.24      0  02:08       0.000     0.000
  YS02001619              0.01      2.39      0  02:08       0.000     0.000
  YS02001625              0.33   1235.19      0  02:15       0.777     0.000
  YS02001629              0.09    191.89      0  02:12       0.036     0.000
  YS02001633              0.01      0.87      0  02:35       0.000     0.000
  YS02001644              0.14    807.57      0  02:13       0.249     0.000
  YS02001779              0.13    390.40      0  02:13       0.103     0.000
  YS02001890              0.11    243.92      0  02:13       0.053     0.000
  YS02001907              0.24   1551.95      0  02:13       0.684     0.000
  YS02001918              0.01    200.28      0  02:10       0.003     0.000
  YS02001920              0.01     44.20      0  02:10       0.000     0.000
  YS02001923              0.01    111.98      0  02:10       0.000     0.000
  YS02001926              0.01    190.63      0  02:10       0.001     0.000
  YS02001929              0.01     78.88      0  02:10       0.000     0.000
  YS02163601              0.01      1.17      0  02:10       0.000     0.000
  YSB1171                 0.21    975.04      0  02:13       0.428     0.000
  JK-storage              0.39    695.82      0  02:23       0.490     0.000
  
  
  **********************
  Storage Volume Summary
  **********************
  
  --------------------------------------------------------------------------------------------------
                         Average     Avg  Evap Exfil       Maximum     Max    Time of Max    Maximum
                          Volume    Pcnt  Pcnt  Pcnt        Volume    Pcnt     Occurrence    Outflow
  Storage Unit           1000 m3    Full  Loss  Loss       1000 m3    Full    days hr:min        LPS
  --------------------------------------------------------------------------------------------------
  CC-storage               3.063      48     0     0         4.652      73       0  02:32    1783.53
  JK-storage               0.151      52     0     0         0.291     100       0  02:23    2300.00
  XR-storage               0.958      67     0     0         1.111      77       0  08:00     380.00
  
  
  ***********************
  Outfall Loading Summary
  ***********************
  
  -----------------------------------------------------------
                         Flow       Avg       Max       Total
                         Freq      Flow      Flow      Volume
  Outfall Node           Pcnt       LPS       LPS    10^6 ltr
  -----------------------------------------------------------
  CC-1                  18.19    683.00    683.00       2.959
  CC-2                  11.55    683.00    683.00       2.091
  JK-1                  20.24    266.42   1000.00       1.151
  JK-2                  14.85    200.45   1000.00       0.569
  WSC                   99.96    528.98   1520.94      13.083
  -----------------------------------------------------------
  System                32.96   2361.85   1520.94      19.852
  
  
  ********************
  Link Flow Summary
  ********************
  
  -----------------------------------------------------------------------------
                                 Maximum  Time of Max   Maximum    Max/    Max/
                                  |Flow|   Occurrence   |Veloc|    Full    Full
  Link                 Type          LPS  days hr:min     m/sec    Flow   Depth
  -----------------------------------------------------------------------------
  1                    CONDUIT   1520.94     0  02:16      3.71    0.53    0.52
  HS02004478WS02006287 CONDUIT   2305.90     0  02:12      2.62    0.65    1.00
  HS02004479HS02004480 CONDUIT    445.30     0  02:09      0.64    0.43    1.00
  HS02004480HS02004478 CONDUIT   2109.20     0  02:07      3.01    8.88    1.00
  HS02004770HS02004777 CONDUIT    751.36     0  02:06      1.07    1.37    1.00
  HS02004777HS02004785 CONDUIT    766.58     0  02:05      1.15    0.94    1.00
  HS02004785HS02004788 CONDUIT    612.26     0  02:28      1.36    4.62    1.00
  HS02004788HS02004792 CONDUIT    823.00     0  02:13      1.42    0.54    1.00
  HS02004792HS02004799 CONDUIT   1627.40     0  02:06      2.32    1.00    1.00
  HS02004799HS02004480 CONDUIT   1768.47     0  02:07      2.53    2.23    1.00
  HS02004802HS02004478 CONDUIT   1233.20     0  02:15      1.76    1.09    1.00
  HS02004807HS02004802 CONDUIT   1233.03     0  02:15      1.76    2.35    1.00
  HS02004817HS02004807 CONDUIT   1053.95     0  02:14      1.51    0.62    1.00
  HS02004817HS02004824 CONDUIT   1053.45     0  02:14      1.50    0.47    1.00
  HS02004824HS02004830 CONDUIT    657.83     0  02:06      0.96    0.86    1.00
  HS02004830HS02004837 CONDUIT    653.26     0  02:06      1.02    0.65    1.00
  HS02004837HS02004842 CONDUIT    831.28     0  02:07      1.19    0.50    1.00
  HS02004842HS02004848 CONDUIT    830.37     0  02:07      1.31    0.48    1.00
  HS02004848HS02004852 CONDUIT   1074.90     0  02:08      1.63    1.21    1.00
  HS02004852HS02004856 CONDUIT   1078.89     0  02:08      1.54    1.23    1.00
  HS02004856HS02004862 CONDUIT   1081.55     0  02:08      1.70    1.08    1.00
  HS02004862HS02004870 CONDUIT   1206.25     0  02:08      1.95    1.30    1.00
  HS02004870HS02004876 CONDUIT   1217.11     0  02:13      1.82    0.81    1.00
  HS02004876HS02004881 CONDUIT   1472.58     0  02:13      2.37   15.66    1.00
  HS02004881HS02006253 CONDUIT   1600.04     0  02:13      2.75    0.31    1.00
  HS02004901HS02004770 CONDUIT    265.78     0  02:24      0.38    1.00    1.00
  WS02001211WS02001212 CONDUIT    211.37     0  03:16      0.54    0.16    0.70
  WS02001212WS02001213 CONDUIT    216.51     0  03:17      1.04    0.33    0.57
  WS02001213WS02003059 CONDUIT    223.26     0  03:17      0.47    0.37    0.90
  WS02003059WS02003060 CONDUIT    231.46     0  03:16      0.67    0.15    0.82
  WS02003060WS02003069 CONDUIT   1517.24     0  02:14      2.09    0.59    0.61
  WS02003066WSF200     CONDUIT   1323.80     0  02:13      3.26    0.22    0.39
  WS02003067WS02003066 CONDUIT   1323.48     0  02:13      2.02    0.42    0.56
  WS02003069WS02003072 CONDUIT   1517.35     0  02:15      1.90    0.73    0.67
  WS02003072WS02003073 CONDUIT   1517.96     0  02:15      2.06    3.28    0.62
  WS02004138WS02004139 CONDUIT    190.00     0  00:32      2.15    0.04    0.42
  WS02004139WS02001211 CONDUIT    201.10     0  02:03      0.54    0.25    0.61
  WS02004401WS02004402 CONDUIT   1323.30     0  02:13      1.68    1.59    1.00
  WS02004402WS02004403 CONDUIT   1323.24     0  02:13      1.68    1.90    1.00
  WS02004403WS02004404 CONDUIT   1323.53     0  02:13      1.69    0.96    1.00
  WS02004404WS02004405 CONDUIT   1323.97     0  02:13      1.69   12.97    1.00
  WS02004405WS02004406 CONDUIT   1323.81     0  02:13      1.69    2.61    1.00
  WS02004406WS02004407 CONDUIT   1323.52     0  02:13      1.77    0.59    0.98
  WS02004407WS02004409 CONDUIT   1322.52     0  02:14      1.81    0.47    0.98
  WS02004409WS02004410 CONDUIT   1322.65     0  02:13      1.68    1.71    1.00
  WS02004410WS02004411 CONDUIT   1322.63     0  02:13      1.68    1.81    1.00
  WS02004411WS02004412 CONDUIT   1322.46     0  02:13      1.68    1.88    1.00
  WS02004412WS02004413 CONDUIT   1322.57     0  02:14      1.68    0.89    1.00
  WS02004413WS02003067 CONDUIT   1322.43     0  02:14      2.04    0.57    0.77
  WS02006109WS02006110 CONDUIT   1120.47     0  02:27      2.23    2.15    1.00
  WS02006110WS02006113 CONDUIT   1120.77     0  02:27      2.23    1.02    1.00
  WS02006111WS02006112 CONDUIT   1120.74     0  02:27      2.23    0.53    1.00
  WS02006112WS02006115 CONDUIT   1323.02     0  02:13      1.68    0.78    1.00
  WS02006113WS02006111 CONDUIT   1120.95     0  02:27      2.61    1.34    1.00
  WS02006115WS02006116 CONDUIT   1322.95     0  02:12      1.68    1.70    1.00
  WS02006116WS02004401 CONDUIT   1322.59     0  02:13      1.68    1.82    1.00
  WS02006228WS02006109 CONDUIT   1288.71     0  02:12      2.56    5.63    1.00
  WS02006229WS02006228 CONDUIT   1289.02     0  02:12      2.56    4.27    1.00
  WS02006230WS02006229 CONDUIT   1017.11     0  02:12      2.64   22.64    1.00
  WS02006231WS02006230 CONDUIT    453.35     0  02:09      1.18    6.88    1.00
  WS02006232WS02006231 CONDUIT    453.44     0  02:08      1.18    0.95    1.00
  WS02006234WS02006232 CONDUIT    453.16     0  02:09      1.41    0.92    1.00
  WS02006235WS02006234 CONDUIT    424.38     0  03:10      1.23    4.48    1.00
  WS02006238WS02006235 CONDUIT    416.22     0  02:22      1.45    0.93    1.00
  WS02006239WS02006238 CONDUIT    415.44     0  02:22      1.12    1.33    1.00
  WS02006240WS02006239 CONDUIT    415.09     0  02:22      1.26    1.31    1.00
  WS02006242WS02006240 CONDUIT    415.28     0  02:22      1.14    1.65    1.00
  WS02006243WS02006242 CONDUIT    386.21     0  03:25      1.34    0.83    1.00
  WS02006245WS02006243 CONDUIT    389.35     0  03:22      1.39    1.15    1.00
  WS02006247WS02006245 CONDUIT    394.03     0  03:21      1.37    3.12    1.00
  WS02006248WS02006247 CONDUIT    403.88     0  03:22      1.38    0.88    1.00
  WS02006249WS02006248 CONDUIT    425.48     0  03:22      1.38    2.33    1.00
  WS02006251WS02006249 CONDUIT   1364.15     0  02:13      3.54    3.93    1.00
  WS02006252WS02006251 CONDUIT    409.05     0  02:39      3.88    1.50    1.00
  WS02006253WS02006251 CONDUIT   1641.92     0  02:13      4.27    4.92    1.00
  WS02006256WS02006235 CONDUIT    288.93     0  00:00      4.23    3.06    1.00
  WS02006280WS02006229 CONDUIT   2307.81     0  02:12      4.51    0.49    1.00
  WS02006284WS02006280 CONDUIT   2305.87     0  02:12      2.96    0.97    1.00
  WS02006287WS02006284 CONDUIT   2306.24     0  02:12      2.94    1.07    1.00
  WSF200WS02003060     CONDUIT   1324.55     0  02:14      2.32    0.29    0.51
  YS02001580YS02001583 CONDUIT    116.87     0  02:06      0.65    0.45    1.00
  YS02001583YS02001586 CONDUIT    165.89     0  02:06      0.69    0.25    1.00
  YS02001586YS02001590 CONDUIT    318.28     0  02:18      1.27    0.56    1.00
  YS02001590YS02001593 CONDUIT    318.06     0  02:17      1.12    2.00    1.00
  YS02001593YS02001596 CONDUIT    317.97     0  02:26      1.74    0.50    1.00
  YS02001596YS02001600 CONDUIT    318.06     0  02:10      1.24    0.62    1.00
  YS02001600YS02001601 CONDUIT    318.03     0  02:17      1.12    0.55    1.00
  YS02001601YS02001602 CONDUIT    516.67     0  02:05      1.83    1.87    1.00
  YS02001602YS02001605 CONDUIT    516.50     0  02:05      1.83   10.93    1.00
  YS02001605YS02001607 CONDUIT    516.37     0  02:05      1.83    2.83    1.00
  YS02001607YS02001610 CONDUIT    516.60     0  02:05      0.66    0.49    1.00
  YS02001610YS02001613 CONDUIT    515.16     0  02:05      0.66    0.59    1.00
  YS02001613YS02001616 CONDUIT    518.25     0  02:05      0.66    0.44    1.00
  YS02001616YS02001619 CONDUIT    502.74     0  02:05      0.66    0.87    1.00
  YS02001619YS02001622 CONDUIT    933.74     0  02:13      1.19    1.38    1.00
  YS02001622YS02001625 CONDUIT    933.42     0  02:13      1.19    0.50    1.00
  YS02001625YS02001629 CONDUIT    930.35     0  02:05      1.18    0.44    1.00
  YS02001629YS02163301 CONDUIT    928.67     0  02:08      1.18    1.14    1.00
  YS02001633YS02163601 CONDUIT   1365.77     0  02:08      1.74    1.43    1.00
  YS02001641YS02001644 CONDUIT   1364.23     0  02:08      1.74    4.41    1.00
  YS02001644YS02001647 CONDUIT   1752.64     0  02:08      2.25    1.03    1.00
  YS02001647YS02001649 CONDUIT   1758.31     0  02:08      2.34    0.93    1.00
  YS02001649YS02001757 CONDUIT   1919.71     0  02:07      2.46    1.16    1.00
  YS02001652YS02001649 CONDUIT    807.28     0  02:14      1.03    0.40    1.00
  YS02001655YS02001652 CONDUIT    807.08     0  02:14      1.31    0.39    1.00
  YS02001658YS02001655 CONDUIT    807.25     0  02:14      1.92    0.34    1.00
  YS02001661YS02001658 CONDUIT    807.26     0  02:14      2.30    0.32    1.00
  YS02001664YS02001661 CONDUIT    804.36     0  02:13      2.29    0.25    0.81
  YS02001745YS02001748 CONDUIT    583.10     0  02:10      2.11    0.22    0.91
  YS02001748YS02001751 CONDUIT    501.34     0  02:12      1.66    0.25    1.00
  YS02001751YS02001754 CONDUIT    502.37     0  02:12      1.43    0.24    1.00
  YS02001754YS02001757 CONDUIT    502.32     0  02:12      0.64    0.20    1.00
  YS02001757CaochengTiaoxuchi CONDUIT   3164.94     0  02:11      4.03    1.37    1.00
  YS02001759YS02001757 CONDUIT   1288.19     0  02:13      1.64    0.92    1.00
  YS02001762YS02001759 CONDUIT    680.82     0  02:17      0.87    0.78    1.00
  YS02001765YS02001762 CONDUIT    680.11     0  02:17      0.87    0.64    1.00
  YS02001767YS02001765 CONDUIT    679.49     0  02:17      0.87    0.85    1.00
  YS02001770YS02001767 CONDUIT    678.71     0  02:17      0.86    2.69    1.00
  YS02001774YS02001770 CONDUIT    414.82     0  02:09      0.53    0.26    1.00
  YS02001779YS02001774 CONDUIT    419.55     0  02:09      0.54    0.21    1.00
  YS02001783YS02001784 CONDUIT   1162.48     0  02:13      2.31    1.60    1.00
  YS02001784YS02001785 CONDUIT   1163.61     0  02:11      2.31    2.71    1.00
  YS02001786YS02001788 CONDUIT   1163.60     0  02:11      2.48    2.24    1.00
  YS02001788YS02001790 CONDUIT   1173.64     0  02:12      2.72    0.86    1.00
  YS02001790YS02001791 CONDUIT   1293.32     0  02:12      3.42    1.41    1.00
  YS02001791YS02001793 CONDUIT   1244.05     0  02:16      6.75    0.53    1.00
  YS02001793JiankangQianchi CONDUIT   1279.84     0  02:12      2.56    0.10    1.00
  YS02001882YS02001884 CONDUIT     52.38     0  02:08      0.11    0.06    1.00
  YS02001884YS02001887 CONDUIT     78.53     0  02:07      0.10    0.10    1.00
  YS02001887YS02001890 CONDUIT    755.20     0  02:13      0.96    1.29    1.00
  YS02001890YS02001895 CONDUIT    517.51     0  02:16      0.66    0.24    1.00
  YS02001895YS02001898 CONDUIT    517.55     0  02:16      0.66    0.90    1.00
  YS02001898YS02001901 CONDUIT    517.42     0  02:15      0.66    0.33    1.00
  YS02001901YS02001904 CONDUIT    517.64     0  02:16      0.66    0.80    1.00
  YS02001904YS02001907 CONDUIT    517.22     0  02:16      0.66    0.18    1.00
  YS02001907YS02006553 CONDUIT    790.03     0  02:23      0.88    0.93    1.00
  YS02001910YS02001907 CONDUIT   1251.06     0  02:13      1.59    0.71    1.00
  YS02001915YS02001910 CONDUIT   1250.94     0  02:13      1.59    0.62    1.00
  YS02001918YS02001915 CONDUIT    461.68     0  02:13      0.59    0.25    1.00
  YS02001920YS02001918 CONDUIT    460.86     0  02:13      0.64    0.45    1.00
  YS02001923YS02001920 CONDUIT    458.43     0  02:14      0.72    0.21    1.00
  YS02001926YS02001923 CONDUIT    451.70     0  02:13      0.98    0.65    1.00
  YS02001929YS02001926 CONDUIT    448.73     0  02:13      1.15    0.21    1.00
  YS02006553YS02006556 CONDUIT    790.96     0  02:23      1.01    0.68    1.00
  YS02006556YS02006558 CONDUIT    792.34     0  02:23      1.01    0.63    1.00
  YS02006558YS02006561 CONDUIT   1162.87     0  02:11      4.11    2.57    1.00
  YS02006561YS02001783 CONDUIT   1162.33     0  02:12      2.31    0.60    1.00
  YS02163301YS02001633 CONDUIT    928.00     0  02:08      1.18    0.87    1.00
  YS02163601YS02164001 CONDUIT   1364.84     0  02:08      1.74    1.21    1.00
  YS02164001YS02001641 CONDUIT   1363.05     0  02:08      1.74    1.86    1.00
  YSB1154YSB6556       CONDUIT    413.90     0  02:13      1.08    0.74    1.00
  YSB1171HS02004479    CONDUIT    444.13     0  02:09      0.88    0.30    1.00
  YSB1174YSB1171       CONDUIT    357.68     0  02:13      0.93    0.55    1.00
  YSB6556YSB1171       CONDUIT    414.42     0  02:13      1.08    0.43    1.00
  CC-R1                PUMP       683.00     0  00:00              1.00
  CC-R2                PUMP       683.00     0  00:00              1.00
  CC-S1                PUMP       200.00     0  00:00              1.00
  CC-S2                PUMP       200.00     0  00:00              1.00
  JK-R1                PUMP      1000.00     0  00:00              1.00
  JK-R2                PUMP      1000.00     0  00:00              1.00
  JK-S                 PUMP       300.00     0  00:00              1.00
  XR-1                 PUMP        95.00     0  00:00              1.00
  XR-2                 PUMP        95.00     0  00:00              1.00
  XR-3                 PUMP        95.00     0  00:00              1.00
  XR-4                 PUMP        95.00     0  00:00              1.00
  
  
  ***************************
  Flow Classification Summary
  ***************************
  
  -------------------------------------------------------------------------------------
                      Adjusted    ---------- Fraction of Time in Flow Class ---------- 
                       /Actual         Up    Down  Sub   Sup   Up    Down  Norm  Inlet 
  Conduit               Length    Dry  Dry   Dry   Crit  Crit  Crit  Crit  Ltd   Ctrl  
  -------------------------------------------------------------------------------------
  1                       1.00   0.00  0.00  0.00  0.00  1.00  0.00  0.00  0.33  0.00
  HS02004478WS02006287    1.00   0.12  0.00  0.00  0.64  0.25  0.00  0.00  0.61  0.00
  HS02004479HS02004480    1.00   0.03  0.00  0.00  0.97  0.00  0.00  0.00  0.11  0.00
  HS02004480HS02004478    1.00   0.09  0.00  0.00  0.58  0.00  0.00  0.33  0.00  0.00
  HS02004770HS02004777    1.00   0.00  0.09  0.00  0.91  0.00  0.00  0.00  0.03  0.00
  HS02004777HS02004785    1.00   0.00  0.00  0.00  1.00  0.00  0.00  0.00  0.13  0.00
  HS02004785HS02004788    1.00   0.00  0.00  0.00  1.00  0.00  0.00  0.00  0.00  0.00
  HS02004788HS02004792    1.00   0.00  0.00  0.00  0.99  0.01  0.00  0.00  0.91  0.00
  HS02004792HS02004799    1.00   0.00  0.00  0.00  0.99  0.01  0.00  0.00  0.88  0.00
  HS02004799HS02004480    1.00   0.00  0.02  0.00  0.88  0.00  0.09  0.00  0.00  0.00
  HS02004802HS02004478    1.00   0.09  0.01  0.00  0.90  0.00  0.00  0.00  0.03  0.00
  HS02004807HS02004802    1.00   0.09  0.00  0.00  0.90  0.00  0.00  0.01  0.00  0.00
  HS02004817HS02004807    1.00   0.00  0.09  0.00  0.91  0.00  0.00  0.00  0.01  0.00
  HS02004817HS02004824    1.00   0.00  0.00  0.00  1.00  0.00  0.00  0.00  0.84  0.00
  HS02004824HS02004830    1.00   0.00  0.00  0.00  1.00  0.00  0.00  0.00  0.01  0.00
  HS02004830HS02004837    1.00   0.00  0.00  0.00  1.00  0.00  0.00  0.00  0.90  0.00
  HS02004837HS02004842    1.00   0.00  0.00  0.00  1.00  0.00  0.00  0.00  0.11  0.00
  HS02004842HS02004848    1.00   0.00  0.09  0.00  0.91  0.00  0.00  0.00  0.58  0.00
  HS02004848HS02004852    1.00   0.09  0.00  0.00  0.91  0.00  0.00  0.00  0.70  0.00
  HS02004852HS02004856    1.00   0.09  0.01  0.00  0.90  0.00  0.00  0.00  0.70  0.00
  HS02004856HS02004862    1.00   0.00  0.13  0.00  0.87  0.00  0.00  0.00  0.75  0.00
  HS02004862HS02004870    1.00   0.00  0.00  0.00  1.00  0.00  0.00  0.00  0.04  0.00
  HS02004870HS02004876    1.00   0.00  0.00  0.00  0.99  0.01  0.00  0.00  0.87  0.00
  HS02004876HS02004881    1.00   0.01  0.00  0.00  0.81  0.17  0.00  0.00  0.00  0.00
  HS02004881HS02006253    1.00   0.03  0.01  0.00  0.39  0.02  0.00  0.55  0.18  0.00
  HS02004901HS02004770    1.00   0.09  0.00  0.00  0.91  0.00  0.00  0.00  0.00  0.00
  WS02001211WS02001212    1.00   0.00  0.02  0.00  0.98  0.00  0.00  0.00  0.00  0.00
  WS02001212WS02001213    1.00   0.02  0.00  0.00  0.34  0.00  0.64  0.00  0.00  0.00
  WS02001213WS02003059    1.00   0.00  0.00  0.00  1.00  0.00  0.00  0.00  0.00  0.00
  WS02003059WS02003060    1.00   0.00  0.00  0.00  1.00  0.00  0.00  0.00  0.03  0.00
  WS02003060WS02003069    1.00   0.00  0.00  0.00  0.99  0.01  0.00  0.00  0.47  0.00
  WS02003066WSF200        1.00   0.09  0.00  0.00  0.00  0.91  0.00  0.00  0.65  0.00
  WS02003067WS02003066    1.00   0.07  0.01  0.00  0.92  0.00  0.00  0.00  0.00  0.00
  WS02003069WS02003072    1.00   0.00  0.00  0.00  1.00  0.00  0.00  0.00  0.71  0.00
  WS02003072WS02003073    1.00   0.00  0.00  0.00  0.00  0.00  0.00  1.00  0.00  0.00
  WS02004138WS02004139    1.00   0.00  0.00  0.00  0.98  0.00  0.00  0.01  0.98  0.00
  WS02004139WS02001211    1.00   0.00  0.00  0.00  1.00  0.00  0.00  0.00  0.00  0.00
  WS02004401WS02004402    1.00   0.02  0.00  0.00  0.98  0.00  0.00  0.00  0.00  0.00
  WS02004402WS02004403    1.00   0.02  0.00  0.00  0.98  0.00  0.00  0.00  0.00  0.00
  WS02004403WS02004404    1.00   0.00  0.02  0.00  0.98  0.00  0.00  0.00  0.00  0.00
  WS02004404WS02004405    1.00   0.00  0.00  0.00  1.00  0.00  0.00  0.00  0.01  0.00
  WS02004405WS02004406    1.00   0.00  0.00  0.00  1.00  0.00  0.00  0.00  0.00  0.00
  WS02004406WS02004407    1.00   0.00  0.03  0.00  0.96  0.00  0.00  0.00  0.00  0.00
  WS02004407WS02004409    1.00   0.04  0.00  0.00  0.96  0.01  0.00  0.00  0.84  0.00
  WS02004409WS02004410    1.00   0.04  0.00  0.00  0.96  0.00  0.00  0.00  0.02  0.00
  WS02004410WS02004411    1.00   0.04  0.00  0.00  0.96  0.00  0.00  0.00  0.00  0.00
  WS02004411WS02004412    1.00   0.04  0.00  0.00  0.96  0.00  0.00  0.00  0.00  0.00
  WS02004412WS02004413    1.00   0.04  0.00  0.00  0.96  0.00  0.00  0.00  0.01  0.00
  WS02004413WS02003067    1.00   0.04  0.03  0.00  0.00  0.00  0.93  0.00  0.00  0.00
  WS02006109WS02006110    1.00   0.00  0.01  0.00  0.99  0.00  0.01  0.00  0.00  0.00
  WS02006110WS02006113    1.00   0.01  0.01  0.00  0.99  0.00  0.00  0.00  0.00  0.00
  WS02006111WS02006112    1.00   0.01  0.00  0.00  0.98  0.00  0.00  0.00  0.81  0.00
  WS02006112WS02006115    1.00   0.01  0.00  0.00  0.98  0.00  0.00  0.00  0.00  0.00
  WS02006113WS02006111    1.00   0.01  0.00  0.00  0.19  0.79  0.00  0.00  0.08  0.00
  WS02006115WS02006116    1.00   0.02  0.00  0.00  0.98  0.00  0.00  0.01  0.00  0.00
  WS02006116WS02004401    1.00   0.02  0.00  0.00  0.98  0.00  0.00  0.00  0.00  0.00
  WS02006228WS02006109    1.00   0.00  0.00  0.00  1.00  0.00  0.00  0.00  0.00  0.00
  WS02006229WS02006228    1.00   0.00  0.00  0.00  0.99  0.00  0.00  0.01  0.00  0.00
  WS02006230WS02006229    1.00   0.00  0.00  0.00  0.99  0.00  0.00  0.01  0.01  0.00
  WS02006231WS02006230    1.00   0.00  0.00  0.00  0.35  0.00  0.65  0.00  0.00  0.00
  WS02006232WS02006231    1.00   0.00  0.00  0.00  0.99  0.00  0.00  0.00  0.00  0.00
[...]
  WSF200WS02003060        1.00   0.00  0.09  0.00  0.60  0.31  0.00  0.00  0.63  0.00
  YS02001580YS02001583    1.00   0.23  0.54  0.00  0.23  0.00  0.00  0.00  0.66  0.00
  YS02001583YS02001586    1.00   0.38  0.32  0.00  0.30  0.00  0.00  0.00  0.67  0.00
  YS02001586YS02001590    1.00   0.09  0.00  0.00  0.54  0.03  0.00  0.34  0.35  0.00
  YS02001590YS02001593    1.00   0.09  0.01  0.00  0.10  0.00  0.80  0.00  0.00  0.00
  YS02001593YS02001596    1.00   0.10  0.00  0.00  0.12  0.01  0.00  0.77  0.02  0.00
  YS02001596YS02001600    1.00   0.10  0.00  0.00  0.20  0.02  0.00  0.68  0.05  0.00
  YS02001600YS02001601    1.00   0.09  0.01  0.00  0.90  0.00  0.00  0.00  0.64  0.00
  YS02001601YS02001602    1.00   0.09  0.01  0.00  0.90  0.00  0.00  0.00  0.00  0.00
  YS02001602YS02001605    1.00   0.10  0.00  0.00  0.90  0.00  0.00  0.00  0.00  0.00
  YS02001605YS02001607    1.00   0.10  0.00  0.00  0.90  0.00  0.00  0.00  0.00  0.00
  YS02001607YS02001610    1.00   0.09  0.01  0.00  0.90  0.00  0.00  0.00  0.02  0.00
  YS02001610YS02001613    1.00   0.09  0.00  0.00  0.91  0.00  0.00  0.00  0.01  0.00
  YS02001613YS02001616    1.00   0.09  0.00  0.00  0.91  0.00  0.00  0.00  0.01  0.00
  YS02001616YS02001619    1.00   0.09  0.00  0.00  0.91  0.00  0.00  0.00  0.00  0.00
  YS02001619YS02001622    1.00   0.09  0.00  0.00  0.91  0.00  0.00  0.00  0.35  0.00
  YS02001622YS02001625    1.00   0.09  0.00  0.00  0.91  0.00  0.00  0.00  0.05  0.00
  YS02001625YS02001629    1.00   0.09  0.04  0.00  0.15  0.00  0.71  0.00  0.00  0.00
  YS02001629YS02163301    1.00   0.11  0.01  0.00  0.88  0.00  0.00  0.00  0.00  0.00
  YS02001633YS02163601    1.00   0.00  0.00  0.00  1.00  0.00  0.00  0.00  0.15  0.00
  YS02001641YS02001644    1.00   0.00  0.00  0.00  1.00  0.00  0.00  0.00  0.00  0.00
  YS02001644YS02001647    1.00   0.00  0.13  0.00  0.87  0.00  0.00  0.00  0.00  0.00
  YS02001647YS02001649    1.00   0.00  0.13  0.00  0.80  0.07  0.00  0.00  0.30  0.00
  YS02001649YS02001757    1.00   0.00  0.00  0.00  0.92  0.07  0.00  0.00  0.19  0.00
  YS02001652YS02001649    1.00   0.00  0.00  0.00  0.97  0.03  0.00  0.00  0.18  0.00
  YS02001655YS02001652    1.00   0.00  0.00  0.00  0.73  0.04  0.00  0.23  0.62  0.00
  YS02001658YS02001655    1.00   0.00  0.10  0.00  0.59  0.31  0.00  0.00  0.71  0.00
  YS02001661YS02001658    1.00   0.10  0.00  0.00  0.43  0.47  0.00  0.00  0.70  0.00
  YS02001664YS02001661    1.00   0.09  0.00  0.00  0.79  0.12  0.00  0.00  0.86  0.00
  YS02001745YS02001748    1.00   0.00  0.00  0.00  0.09  0.01  0.00  0.91  0.04  0.00
  YS02001748YS02001751    1.00   0.00  0.00  0.00  0.76  0.24  0.00  0.00  0.77  0.00
  YS02001751YS02001754    1.00   0.00  0.00  0.00  0.35  0.09  0.00  0.56  0.09  0.00
  YS02001754YS02001757    1.00   0.00  0.00  0.00  1.00  0.00  0.00  0.00  0.25  0.00
  YS02001757CaochengTiaoxuchi    1.00   0.00  0.00  0.00  1.00  0.00  0.00  0.00  0.25  0.00
  YS02001759YS02001757    1.00   0.00  0.00  0.00  1.00  0.00  0.00  0.00  0.07  0.00
  YS02001762YS02001759    1.00   0.00  0.00  0.00  1.00  0.00  0.00  0.00  0.05  0.00
  YS02001765YS02001762    1.00   0.00  0.00  0.00  1.00  0.00  0.00  0.00  0.16  0.00
  YS02001767YS02001765    1.00   0.00  0.00  0.00  1.00  0.00  0.00  0.00  0.00  0.00
  YS02001770YS02001767    1.00   0.00  0.00  0.00  1.00  0.00  0.00  0.00  0.00  0.00
  YS02001774YS02001770    1.00   0.00  0.09  0.00  0.90  0.00  0.00  0.00  0.04  0.00
  YS02001779YS02001774    1.00   0.00  0.00  0.00  1.00  0.00  0.00  0.00  0.77  0.00
  YS02001783YS02001784    1.00   0.00  0.14  0.00  0.86  0.00  0.00  0.00  0.58  0.00
  YS02001784YS02001785    1.00   0.00  0.00  0.00  1.00  0.00  0.00  0.00  0.18  0.00
  YS02001786YS02001788    1.00   0.00  0.00  0.00  0.81  0.19  0.00  0.00  0.00  0.00
  YS02001788YS02001790    1.00   0.00  0.00  0.00  0.28  0.72  0.00  0.00  0.81  0.00
  YS02001790YS02001791    1.00   0.00  0.00  0.00  0.13  0.87  0.00  0.00  0.07  0.00
  YS02001791YS02001793    1.00   0.00  0.00  0.00  0.12  0.88  0.00  0.00  0.01  0.00
  YS02001793JiankangQianchi    1.00   0.00  0.00  0.00  0.98  0.02  0.00  0.00  0.88  0.00
  YS02001882YS02001884    1.00   0.11  0.01  0.00  0.88  0.00  0.00  0.00  0.00  0.00
  YS02001884YS02001887    1.00   0.04  0.04  0.00  0.92  0.00  0.00  0.00  0.00  0.00
  YS02001887YS02001890    1.00   0.00  0.00  0.00  0.98  0.00  0.02  0.00  0.00  0.00
  YS02001890YS02001895    1.00   0.00  0.12  0.00  0.88  0.00  0.00  0.00  0.00  0.00
  YS02001895YS02001898    1.00   0.12  0.00  0.00  0.86  0.00  0.01  0.00  0.00  0.00
  YS02001898YS02001901    1.00   0.12  0.00  0.00  0.87  0.00  0.00  0.00  0.01  0.00
  YS02001901YS02001904    1.00   0.12  0.00  0.00  0.88  0.00  0.00  0.00  0.00  0.00
  YS02001904YS02001907    1.00   0.00  0.12  0.00  0.88  0.00  0.00  0.00  0.00  0.00
  YS02001907YS02006553    1.00   0.00  0.02  0.00  0.98  0.00  0.00  0.00  0.00  0.00
  YS02001910YS02001907    1.00   0.00  0.00  0.00  0.98  0.00  0.00  0.02  0.12  0.00
  YS02001915YS02001910    1.00   0.00  0.00  0.00  0.97  0.03  0.00  0.00  0.17  0.00
  YS02001918YS02001915    1.00   0.00  0.00  0.00  0.98  0.01  0.00  0.00  0.78  0.00
  YS02001920YS02001918    1.00   0.00  0.00  0.00  1.00  0.00  0.00  0.00  0.00  0.00
  YS02001923YS02001920    1.00   0.00  0.00  0.00  1.00  0.00  0.00  0.00  0.94  0.00
  YS02001926YS02001923    1.00   0.00  0.05  0.00  0.05  0.00  0.90  0.00  0.00  0.00
  YS02001929YS02001926    1.00   0.00  0.09  0.00  0.91  0.00  0.00  0.00  0.83  0.00
  YS02006553YS02006556    1.00   0.01  0.00  0.00  0.99  0.00  0.00  0.00  0.03  0.00
  YS02006556YS02006558    1.00   0.00  0.00  0.00  1.00  0.00  0.00  0.00  0.00  0.00
  YS02006558YS02006561    1.00   0.14  0.00  0.00  0.06  0.81  0.00  0.00  0.17  0.00
  YS02006561YS02001783    1.00   0.14  0.00  0.00  0.13  0.74  0.00  0.00  0.72  0.00
  YS02163301YS02001633    1.00   0.00  0.11  0.00  0.89  0.00  0.00  0.00  0.00  0.00
  YS02163601YS02164001    1.00   0.00  0.06  0.00  0.94  0.00  0.00  0.00  0.00  0.00
  YS02164001YS02001641    1.00   0.00  0.05  0.00  0.94  0.00  0.00  0.00  0.06  0.00
  YSB1154YSB6556          1.00   0.09  0.00  0.00  0.91  0.00  0.00  0.00  0.02  0.00
  YSB1171HS02004479       1.00   0.03  0.00  0.00  0.96  0.00  0.00  0.01  0.10  0.00
  YSB1174YSB1171          1.00   0.04  0.03  0.00  0.93  0.00  0.00  0.00  0.00  0.00
  YSB6556YSB1171          1.00   0.03  0.06  0.00  0.91  0.00  0.00  0.00  0.00  0.00
  
  
  *************************
  Conduit Surcharge Summary
  *************************
  
  ----------------------------------------------------------------------------
                                                           Hours        Hours 
                         --------- Hours Full --------   Above Full   Capacity
  Conduit                Both Ends  Upstream  Dnstream   Normal Flow   Limited
  ----------------------------------------------------------------------------
  HS02004478WS02006287        0.40      0.40      0.55      0.01         0.01
  HS02004479HS02004480        0.56      0.56      0.58      0.01         0.01
  HS02004480HS02004478        0.50      0.55      0.50      1.51         0.50
  HS02004770HS02004777        0.47      0.47      0.47      0.08         0.05
  HS02004777HS02004785        0.43      0.43      0.47      0.01         0.01
  HS02004785HS02004788        0.42      0.43      0.42      1.22         0.39
  HS02004788HS02004792        0.42      0.42      0.52      0.01         0.01
  HS02004792HS02004799        0.52      0.52      0.63      0.01         0.01
  HS02004799HS02004480        0.55      0.55      0.63      0.71         0.01
  HS02004802HS02004478        0.50      0.50      0.56      0.08         0.01
  HS02004807HS02004802        0.53      0.53      0.55      0.20         0.20
  HS02004817HS02004807        0.53      0.53      1.02      0.01         0.01
  HS02004817HS02004824        0.42      0.42      1.02      0.01         0.01
  HS02004824HS02004830        0.39      0.39      0.42      0.01         0.01
  HS02004830HS02004837        0.36      0.36      0.39      0.01         0.01
  HS02004837HS02004842        0.36      0.36      0.48      0.01         0.01
  HS02004842HS02004848        0.32      0.32      0.48      0.01         0.01
  HS02004848HS02004852        0.32      0.32      0.35      0.03         0.01
  HS02004852HS02004856        0.34      0.35      0.36      0.02         0.01
  HS02004856HS02004862        0.33      0.33      0.36      0.01         0.01
  HS02004862HS02004870        0.36      0.36      0.38      0.18         0.16
  HS02004870HS02004876        0.38      0.38      0.44      0.01         0.01
  HS02004876HS02004881        0.42      0.44      0.42      1.25         0.42
  HS02004881HS02006253        0.42      0.42      1.23      0.01         0.01
  HS02004901HS02004770        0.47      0.47      0.48      0.01         0.01
  WS02003072WS02003073        0.01      0.01      0.01      1.99         0.01
  WS02004401WS02004402        1.29      1.29      1.31      1.12         1.12
  WS02004402WS02004403        1.31      1.31      1.31      1.29         1.28
  WS02004403WS02004404        1.31      1.31      1.39      0.01         0.02
  WS02004404WS02004405        1.38      1.39      1.38      3.09         1.38
  WS02004405WS02004406        1.36      1.38      1.36      1.60         1.36
  WS02004406WS02004407        0.01      0.01      1.36      0.01         0.01
  WS02004407WS02004409        0.01      0.01      0.83      0.01         0.01
  WS02004409WS02004410        0.80      0.83      0.80      1.25         0.80
  WS02004410WS02004411        0.74      0.80      0.74      1.27         0.74
  WS02004411WS02004412        0.65      0.74      0.65      1.29         0.65
  WS02004412WS02004413        0.65      0.65      1.07      0.01         0.01
  WS02004413WS02003067        0.01      0.01      1.07      0.01         0.01
  WS02006109WS02006110        1.52      1.52      1.82      1.53         0.01
  WS02006110WS02006113        1.06      1.06      1.81      0.24         0.01
  WS02006111WS02006112        1.04      1.04      1.93      0.01         0.01
  WS02006112WS02006115        1.26      1.26      1.67      0.01         0.01
  WS02006113WS02006111        1.06      1.06      1.06      1.10         1.05
  WS02006115WS02006116        1.27      1.27      1.27      1.25         1.24
  WS02006116WS02004401        1.29      1.29      1.29      1.28         1.27
  WS02006228WS02006109        1.79      1.82      1.79      2.01         1.79
  WS02006229WS02006228        1.79      1.80      1.79      1.91         1.79
  WS02006230WS02006229        1.84      1.85      1.84      3.26         0.86
  WS02006231WS02006230        1.36      1.36      1.40      2.66         0.83
  WS02006232WS02006231        1.38      1.38      1.64      0.01         0.13
  WS02006234WS02006232        1.49      1.49      1.64      0.01         0.01
  WS02006235WS02006234        1.44      1.45      1.50      2.16         0.81
  WS02006238WS02006235        1.52      1.52      1.57      0.01         0.29
  WS02006239WS02006238        1.52      1.52      1.54      0.81         0.11
  WS02006240WS02006239        1.43      1.44      1.45      0.81         0.09
  WS02006242WS02006240        1.42      1.42      1.52      1.14         0.74
  WS02006243WS02006242        1.39      1.39      1.48      0.01         0.01
  WS02006245WS02006243        1.35      1.35      1.37      0.12         0.06
  WS02006247WS02006245        1.35      1.37      1.35      1.74         0.32
  WS02006248WS02006247        1.33      1.33      1.35      0.01         0.01
  WS02006249WS02006248        1.32      1.32      1.33      0.75         0.01
  WS02006251WS02006249        1.32      1.32      1.33      1.36         1.26
  WS02006252WS02006251        1.39      1.39      1.41      0.92         0.01
  WS02006253WS02006251        1.32      1.32      1.34      0.66         0.01
  WS02006256WS02006235        2.66      2.67      7.98      0.50         0.01
  WS02006280WS02006229        0.65      0.65      0.79      0.01         0.01
  WS02006284WS02006280        0.57      0.57      0.64      0.01         0.01
  WS02006287WS02006284        0.49      0.49      0.58      0.23         0.22
  YS02001580YS02001583        0.46      0.46      0.49      0.01         0.01
  YS02001583YS02001586        0.46      0.46      0.55      0.01         0.01
  YS02001586YS02001590        0.56      0.56      0.62      0.01         0.01
  YS02001590YS02001593        0.61      0.61      0.63      0.64         0.01
  YS02001593YS02001596        0.63      0.63      0.71      0.01         0.01
  YS02001596YS02001600        0.75      0.75      0.84      0.01         0.01
  YS02001600YS02001601        0.89      0.89      1.17      0.01         0.01
  YS02001601YS02001602        1.05      1.05      1.20      0.83         0.01
  YS02001602YS02001605        1.00      1.00      1.05      1.99         0.01
  YS02001605YS02001607        0.96      1.00      0.96      1.12         0.96
  YS02001607YS02001610        0.60      0.60      0.62      0.01         0.01
  YS02001610YS02001613        0.59      0.59      0.62      0.01         0.01
  YS02001613YS02001616        0.55      0.55      0.59      0.01         0.01
  YS02001616YS02001619        0.54      0.54      0.55      0.01         0.02
  YS02001619YS02001622        0.54      0.54      0.54      0.61         0.50
  YS02001622YS02001625        0.54      0.54      0.70      0.01         0.01
  YS02001625YS02001629        0.51      0.51      0.70      0.01         0.01
  YS02001629YS02163301        0.70      0.70      0.71      0.07         0.12
  YS02001633YS02163601        0.72      0.72      0.75      0.26         0.25
  YS02001641YS02001644        0.64      0.68      0.64      1.25         0.63
  YS02001644YS02001647        0.47      0.47      0.64      0.02         0.01
  YS02001647YS02001649        0.47      0.47      0.58      0.01         0.01
  YS02001649YS02001757        0.57      0.58      0.64      0.06         0.02
  YS02001652YS02001649        0.43      0.43      0.58      0.01         0.01
  YS02001655YS02001652        0.30      0.30      0.42      0.01         0.01
  YS02001658YS02001655        0.16      0.16      0.30      0.01         0.01
  YS02001661YS02001658        0.01      0.01      0.16      0.01         0.01
  YS02001664YS02001661        0.01      0.01      0.07      0.01         0.01
  YS02001745YS02001748        0.01      0.01      0.12      0.01         0.01
  YS02001748YS02001751        0.15      0.15      0.22      0.01         0.01
  YS02001751YS02001754        0.22      0.22      0.35      0.01         0.01
  YS02001754YS02001757        0.38      0.38      0.64      0.01         0.01
  YS02001757CaochengTiaoxuchi        0.64      0.64      5.92      0.24         0.24
  YS02001759YS02001757        0.55      0.55      0.64      0.01         0.01
  YS02001762YS02001759        0.52      0.52      0.55      0.01         0.02
  YS02001765YS02001762        0.49      0.49      0.52      0.01         0.01
  YS02001767YS02001765        0.46      0.46      0.49      0.01         0.01
  YS02001770YS02001767        0.45      0.45      0.46      0.38         0.29
  YS02001774YS02001770        0.44      0.44      0.50      0.01         0.01
  YS02001779YS02001774        0.34      0.34      0.50      0.01         0.01
  YS02001783YS02001784        0.50      0.51      0.52      0.51         0.45
  YS02001784YS02001785        0.48      0.52      0.48      0.71         0.48
  YS02001786YS02001788        0.24      0.48      0.24      0.63         0.24
  YS02001788YS02001790        0.24      0.24      0.56      0.01         0.01
  YS02001790YS02001791        0.56      0.56      0.70      0.30         0.04
  YS02001791YS02001793        0.70      0.70      0.80      0.01         0.01
  YS02001793JiankangQianchi        0.79      0.79      7.70      0.01         0.01
  YS02001882YS02001884        0.39      0.39      0.40      0.01         0.01
  YS02001884YS02001887        0.41      0.41      0.42      0.01         0.01
  YS02001887YS02001890        0.44      0.44      0.45      0.08         0.01
  YS02001890YS02001895        0.38      0.38      0.46      0.01         0.01
  YS02001895YS02001898        0.37      0.37      0.38      0.01         0.01
  YS02001898YS02001901        0.38      0.38      0.41      0.01         0.01
  YS02001901YS02001904        0.40      0.40      0.41      0.01         0.01
  YS02001904YS02001907        0.40      0.40      0.61      0.01         0.01
  YS02001907YS02006553        0.72      0.72      0.76      0.01         0.01
  YS02001910YS02001907        0.45      0.45      0.60      0.01         0.01
  YS02001915YS02001910        0.38      0.38      0.45      0.01         0.01
  YS02001918YS02001915        0.30      0.30      0.38      0.01         0.01
  YS02001920YS02001918        0.30      0.30      0.31      0.01         0.01
  YS02001923YS02001920        0.23      0.23      0.31      0.01         0.01
  YS02001926YS02001923        0.03      0.03      0.04      0.01         0.01
  YS02001929YS02001926        0.01      0.01      0.04      0.01         0.01
  YS02006553YS02006556        0.53      0.53      0.62      0.01         0.01
  YS02006556YS02006558        0.57      0.57      0.63      0.01         0.01
  YS02006558YS02006561        0.40      0.52      0.40      0.67         0.40
  YS02006561YS02001783        0.32      0.32      0.51      0.01         0.01
  YS02163301YS02001633        0.71      0.71      0.74      0.01         0.01
  YS02163601YS02164001        0.68      0.68      0.75      0.06         0.01
  YS02164001YS02001641        0.68      0.68      0.68      0.55         0.49
  YSB1154YSB6556              0.61      0.61      0.72      0.01         0.01
  YSB1171HS02004479           0.51      0.51      0.73      0.01         0.01
  YSB1174YSB1171              0.66      0.66      0.94      0.01         0.01
  YSB6556YSB1171              0.61      0.61      1.10      0.01         0.01
  
  
  ***************
  Pumping Summary
  ***************
  
  ---------------------------------------------------------------------------------------------------------
                                                  Min       Avg       Max     Total     Power    % Time Off
                        Percent   Number of      Flow      Flow      Flow    Volume     Usage    Pump Curve
  Pump                 Utilized   Start-Ups       LPS       LPS       LPS  10^6 ltr     Kw-hr    Low   High
  ---------------------------------------------------------------------------------------------------------
  CC-R1                   15.04           3      0.00    683.00    683.00     2.959     55.75    0.0    6.9
  CC-R2                   10.63           2      0.00    683.00    683.00     2.090     39.74    0.0    9.8
  CC-S1                   96.88           3      0.00     52.40    200.00     1.066      6.54    0.0    0.0
  CC-S2                   93.75           4      0.00     68.52    200.00     1.183      7.14    0.0    0.0
  JK-R1                   15.34           7      0.00    266.42   1000.00     1.150     13.06    0.0    0.0
  JK-R2                   12.29           3      0.00    200.45   1000.00     0.569      6.10    0.0    0.0
  JK-S                    28.07           9      0.00     80.43    300.00     0.910      7.86    0.0    0.0
  XR-1                    97.91           2      0.00     95.00     95.00     2.679      9.63    0.0    0.0
  XR-2                    93.95           2      0.00     95.00     95.00     2.570      8.79    0.0    0.0
  XR-3                     0.00           1      0.00     95.00     95.00     0.000      0.00    0.0    0.0
  XR-4                     0.00           1      0.00     95.00     95.00     0.000      0.00    0.0    0.0
  

  Analysis begun on:  Sun Jun 25 21:03:37 2023
  Analysis ended on:  Sun Jun 25 21:03:49 2023
  Total elapsed time: 00:00:12