
  OWA STORM WATER MANAGEMENT MODEL - VERSION v5.1.14 (OWA 2022-07-31)
  --------------------------------------------------------------

  WARNING 04: minimum elevation drop used for Conduit WS02004404WS02004405
  WARNING 03: negative offset ignored for Link YS02001904YS02001907
  
  *********************************************************
  NOTE: The summary statistics displayed in this report are
  based on results found at every computational time step,  
  not just on results from each reporting time step.
  *********************************************************
  
  ****************
  Analysis Options
  ****************
  Flow Units ............... LPS
  Process Models:
    Rainfall/Runoff ........ YES
    RDII ................... NO
    Snowmelt ............... NO
    Groundwater ............ NO
    Flow Routing ........... YES
    Ponding Allowed ........ NO
    Water Quality .......... NO
  Infiltration Method ...... HORTON
  Flow Routing Method ...... DYNWAVE
  Surcharge Method ......... EXTRAN
  Starting Date ............ 08/28/2015 08:00:00
  Ending Date .............. 08/28/2015 16:00:00
  Antecedent Dry Days ...... 8.0
  Report Time Step ......... 00:01:00
  Wet Time Step ............ 00:01:00
  Dry Time Step ............ 00:01:00
  Routing Time Step ........ 30.00 sec
  Variable Time Step ....... YES
  Maximum Trials ........... 8
  Number of Threads ........ 2
  Head Tolerance ........... 0.001500 m
  
  
  **************************        Volume         Depth
  Runoff Quantity Continuity     hectare-m            mm
  **************************     ---------       -------
  Initial LID Storage ......         0.072         1.184
  Total Precipitation ......         1.558        25.711
  Evaporation Loss .........         0.000         0.000
  Infiltration Loss ........         0.173         2.857
  Surface Runoff ...........         1.074        17.727
  Final Storage ............         0.383         6.318
  Continuity Error (%) .....        -0.023
  
  
  **************************        Volume        Volume
  Flow Routing Continuity        hectare-m      10^6 ltr
  **************************     ---------     ---------
  Dry Weather Inflow .......         0.630         6.296
  Wet Weather Inflow .......         1.074        10.737
  Groundwater Inflow .......         0.000         0.000
  RDII Inflow ..............         0.000         0.000
  External Inflow ..........         0.105         1.045
  External Outflow .........         1.446        14.460
  Flooding Loss ............         0.135         1.351
  Evaporation Loss .........         0.000         0.000
  Exfiltration Loss ........         0.000         0.000
  Initial Stored Volume ....         0.303         3.031
  Final Stored Volume ......         0.533         5.331
  Continuity Error (%) .....        -0.158
  
  
  *************************
  Highest Continuity Errors
  *************************
  Node YS02001774 (10.68%)
  Node YS02001583 (-9.92%)
  Node YS02001884 (6.97%)
  Node HS02004842 (6.37%)
  Node HS02004817 (1.89%)
  
  
  ***************************
  Time-Step Critical Elements
  ***************************
  Link WS02006252WS02006251 (76.74%)
  Link WS02006280WS02006229 (11.58%)
  Link WS02006238WS02006235 (5.18%)
  Link YS02006556YS02006558 (1.36%)
  
  
  ********************************
  Highest Flow Instability Indexes
  ********************************
  Link WS02006113WS02006111 (20)
  Link WS02006111WS02006112 (9)
  Link WS02006256WS02006235 (8)
  Link WS02004404WS02004405 (8)
  Link WS02006252WS02006251 (7)
  
  
  *************************
  Routing Time Step Summary
  *************************
  Minimum Time Step           :     0.04 sec
  Average Time Step           :     1.88 sec
  Maximum Time Step           :     6.46 sec
  Percent in Steady State     :    -0.00
  Average Iterations per Step :     2.48
  Percent Not Converging      :     4.52
  
  
  ***************************
  Subcatchment Runoff Summary
  ***************************
  
  ------------------------------------------------------------------------------------------------------------------------------
                            Total      Total      Total      Total     Imperv       Perv      Total       Total     Peak  Runoff
                           Precip      Runon       Evap      Infil     Runoff     Runoff     Runoff      Runoff   Runoff   Coeff
  Subcatchment                 mm         mm         mm         mm         mm         mm         mm    10^6 ltr      LPS
  ------------------------------------------------------------------------------------------------------------------------------
  sub0                      25.71       0.00       0.00       0.91      22.66       0.90      23.55        0.02    13.45   0.916
  sub1                      25.71       0.00       0.00       1.34      19.40       1.20      20.60        0.14    71.64   0.801
  sub10                     25.71       0.00       0.00       0.86      18.18       0.81      18.99        0.21   117.68   0.739
  sub11                     25.71       0.00       0.00       0.79      16.91       0.76      17.67        0.21   127.64   0.687
  sub12                     25.71       0.00       0.00       1.38      17.19       1.33      18.52        0.16   109.44   0.720
  sub14                     25.71       0.00       0.00       0.86      16.01       0.82      16.83        0.16    96.76   0.654
  sub15                     25.71       0.00       0.00       3.75      14.39       2.77      17.16        0.30   149.97   0.667
  sub16                     25.71       0.00       0.00       4.02      14.04       3.28      17.32        0.18   103.34   0.674
  sub17                     25.71       0.00       0.00       4.29      15.50       3.41      18.91        0.16    89.62   0.735
  sub2                      25.71       0.00       0.00       5.70      14.17       3.11      17.28        0.16    66.88   0.672
  sub22                     25.71       0.00       0.00       6.53      13.43       4.18      17.61        1.11   532.52   0.685
  sub23                     25.71       0.00       0.00       4.98      13.84       3.60      17.44        0.83   428.03   0.678
  sub3                      25.71       0.00       0.00       5.96      14.01       2.77      16.79        0.38   139.54   0.653
  sub4                      25.71       0.00       0.00       1.43      19.04       1.08      20.12        0.42   154.03   0.782
  sub5                      25.71       0.00       0.00       0.77      18.77       0.73      19.49        0.22   120.27   0.758
  sub60                     25.71       0.00       0.00       1.23      16.54       1.16      17.69        0.23   144.36   0.688
  sub61                     25.71       0.00       0.00       1.87      16.52       1.70      18.23        0.33   204.16   0.709
  sub62                     25.71       0.00       0.00       0.83      17.60       0.79      18.39        0.50   280.07   0.715
  sub63                     25.71       0.00       0.00       3.37      14.15       2.74      16.88        0.38   214.08   0.657
  sub64                     25.71       0.00       0.00       1.63      16.10       1.38      17.48        0.42   213.49   0.680
  sub65                     25.71       0.00       0.00       1.49      17.37       1.26      18.62        0.51   245.22   0.724
  sub66                     25.71       0.00       0.00       3.77      13.65       2.14      15.79        0.74   289.48   0.614
  sub67                     25.71       0.00       0.00       0.84      18.06       0.82      18.88        0.35   237.88   0.734
  sub68                     25.71       0.00       0.00       1.44      15.94       1.31      17.25        0.47   276.77   0.671
  sub69                     25.71       0.00       0.00       1.24      17.25       1.82      19.07        0.71   339.78   0.742
  sub7                      25.71       0.00       0.00       0.91      17.16       0.88      18.04        0.06    38.69   0.702
  sub70                     25.71       0.00       0.00       3.94      13.79       3.21      17.00        0.49   175.61   0.661
  sub71                     25.71       0.00       0.00       0.77      15.98       0.71      16.69        0.44   222.30   0.649
  sub72                     25.71       0.00       0.00       0.73      17.25       0.65      17.90        0.25   108.59   0.696
  sub8                      25.71       0.00       0.00       0.89      16.68       0.85      17.53        0.11    68.30   0.682
  sub9                      25.71       0.00       0.00       0.86      16.17       0.83      16.99        0.08    49.70   0.661
  

  ***********************
  LID Performance Summary
  ***********************

  --------------------------------------------------------------------------------------------------------------------
                                         Total      Evap     Infil   Surface    Drain    Initial     Final  Continuity
                                        Inflow      Loss      Loss   Outflow   Outflow   Storage   Storage       Error
  Subcatchment      LID Control             mm        mm        mm        mm        mm        mm        mm           %
  --------------------------------------------------------------------------------------------------------------------
  sub1              GreenRoof            25.71      0.00      0.00      0.00      0.00      7.05     32.76        0.00
  sub10             GreenRoof            25.71      0.00      0.00      0.00      0.00      7.05     32.76        0.00
  sub11             GreenRoof            25.71      0.00      0.00      0.00      0.00      7.05     32.76        0.00
  sub12             GreenRoof            25.71      0.00      0.00      0.00      0.00      7.05     32.76        0.00
  sub14             GreenRoof            25.71      0.00      0.00      0.00      0.00      7.05     32.76        0.00
  sub15             GreenRoof            25.71      0.00      0.00      0.00      0.00      7.05     32.76        0.00
  sub16             GreenRoof            25.71      0.00      0.00      0.00      0.00      7.05     32.76        0.00
  sub17             GreenRoof            25.71      0.00      0.00      0.00      0.00      7.05     32.76        0.00
  sub2              GreenRoof            25.71      0.00      0.00      0.00      0.00      7.05     32.76        0.00
  sub22             GreenRoof            25.71      0.00      0.00      0.00      0.00      7.05     32.76        0.00
  sub23             GreenRoof            25.71      0.00      0.00      0.00      0.00      7.05     32.76        0.00
  sub3              GreenRoof            25.71      0.00      0.00      0.00      0.00      7.05     32.76        0.00
  sub4              GreenRoof            25.71      0.00      0.00      0.00      0.00      7.05     32.76        0.00
  sub5              GreenRoof            25.71      0.00      0.00      0.00      0.00      7.05     32.76        0.00
  sub60             GreenRoof            25.71      0.00      0.00      0.00      0.00      7.05     32.76        0.00
  sub61             GreenRoof            25.71      0.00      0.00      0.00      0.00      7.05     32.76        0.00
  sub62             GreenRoof            25.71      0.00      0.00      0.00      0.00      7.05     32.76        0.00
  sub63             GreenRoof            25.71      0.00      0.00      0.00      0.00      7.05     32.76        0.00
  sub64             GreenRoof            25.71      0.00      0.00      0.00      0.00      7.05     32.76        0.00
  sub65             GreenRoof            25.71      0.00      0.00      0.00      0.00      7.05     32.76        0.00
  sub66             GreenRoof            25.71      0.00      0.00      0.00      0.00      7.05     32.76        0.00
  sub67             GreenRoof            25.71      0.00      0.00      0.00      0.00      7.05     32.76        0.00
  sub68             GreenRoof            25.71      0.00      0.00      0.00      0.00      7.05     32.76        0.00
  sub69             GreenRoof            25.71      0.00      0.00      0.00      0.00      7.05     32.76        0.00
  sub7              GreenRoof            25.71      0.00      0.00      0.00      0.00      7.05     32.76        0.00
  sub70             GreenRoof            25.71      0.00      0.00      0.00      0.00      7.05     32.76        0.00
  sub71             GreenRoof            25.71      0.00      0.00      0.00      0.00      7.05     32.76        0.00
  sub72             GreenRoof            25.71      0.00      0.00      0.00      0.00      7.05     32.76        0.00
  sub8              GreenRoof            25.71      0.00      0.00      0.00      0.00      7.05     32.76        0.00
  sub9              GreenRoof            25.71      0.00      0.00      0.00      0.00      7.05     32.76        0.00
  
  ******************
  Node Depth Summary
  ******************
  
  ---------------------------------------------------------------------------------
                                 Average  Maximum  Maximum  Time of Max    Reported
                                   Depth    Depth      HGL   Occurrence   Max Depth
  Node                 Type       Meters   Meters   Meters  days hr:min      Meters
  ---------------------------------------------------------------------------------
  HS02004478           JUNCTION     0.11     0.66     9.88     0  01:42        0.65
  HS02004479           JUNCTION     0.18     0.80    10.00     0  01:43        0.80
  HS02004480           JUNCTION     0.14     0.76    10.00     0  01:42        0.76
  HS02004770           JUNCTION     0.16     0.62    10.45     0  01:41        0.62
  HS02004777           JUNCTION     0.19     0.63    10.43     0  01:41        0.63
  HS02004785           JUNCTION     0.09     0.45    10.35     0  01:43        0.45
  HS02004788           JUNCTION     0.05     0.35    10.25     0  01:43        0.35
  HS02004792           JUNCTION     0.08     0.76    10.28     0  01:42        0.71
  HS02004799           JUNCTION     0.19     0.90    10.11     0  01:43        0.88
  HS02004802           JUNCTION     0.21     0.78     9.91     0  01:42        0.75
  HS02004807           JUNCTION     0.17     0.76     9.93     0  01:42        0.71
  HS02004817           JUNCTION     0.48     1.06     9.91     0  01:43        1.04
  HS02004824           JUNCTION     0.06     0.49     9.89     0  01:43        0.48
  HS02004830           JUNCTION     0.07     0.42     9.89     0  01:43        0.41
  HS02004837           JUNCTION     0.05     0.31     9.89     0  01:45        0.31
  HS02004842           JUNCTION     0.35     0.63     9.90     0  01:44        0.62
  HS02004848           JUNCTION     0.03     0.29     9.89     0  01:44        0.28
  HS02004852           JUNCTION     0.03     0.31     9.82     0  01:45        0.30
  HS02004856           JUNCTION     0.09     0.35     9.78     0  01:45        0.34
  HS02004862           JUNCTION     0.04     0.31     9.69     0  01:45        0.30
  HS02004870           JUNCTION     0.03     0.26     9.55     0  01:46        0.26
  HS02004876           JUNCTION     0.07     0.34     9.37     0  01:46        0.33
  HS02004881           JUNCTION     0.02     0.21     9.23     0  01:41        0.16
  HS02004901           JUNCTION     0.17     0.63    10.45     0  01:41        0.63
  WS02001211           JUNCTION     0.62     0.82     5.66     0  01:49        0.81
  WS02001212           JUNCTION     0.36     0.59     5.65     0  01:49        0.58
  WS02001213           JUNCTION     0.57     0.91     5.67     0  01:48        0.86
  WS02003059           JUNCTION     0.63     0.93     5.61     0  01:51        0.91
  WS02003060           JUNCTION     0.34     0.65     5.59     0  01:51        0.65
  WS02003066           JUNCTION     0.20     0.43     5.98     0  01:49        0.43
  WS02003067           JUNCTION     0.49     0.91     6.23     0  01:43        0.89
  WS02003069           JUNCTION     0.39     0.74     5.32     0  01:52        0.73
  WS02003072           JUNCTION     0.45     0.78     5.15     0  01:50        0.78
  WS02003073           JUNCTION     0.27     0.49     4.56     0  01:51        0.49
  WS02004138           JUNCTION     0.13     0.14     7.39     0  00:32        0.14
  WS02004139           JUNCTION     0.56     0.74     5.65     0  01:47        0.74
  WS02004401           JUNCTION     0.63     2.65     8.65     0  01:40        1.58
  WS02004402           JUNCTION     0.66     2.32     8.28     0  01:40        1.76
  WS02004403           JUNCTION     0.68     2.09     8.02     0  01:40        1.96
  WS02004404           JUNCTION     0.75     2.08     7.93     0  01:41        2.08
  WS02004405           JUNCTION     0.74     2.01     7.86     0  01:41        2.01
  WS02004406           JUNCTION     0.74     1.74     7.57     0  01:40        1.67
  WS02004407           JUNCTION     0.19     0.71     7.02     0  01:45        0.71
  WS02004409           JUNCTION     0.42     1.24     7.01     0  01:46        1.24
  WS02004410           JUNCTION     0.44     1.27     6.99     0  01:43        1.17
  WS02004411           JUNCTION     0.45     1.14     6.82     0  01:43        1.11
  WS02004412           JUNCTION     0.47     1.10     6.74     0  01:43        1.04
  WS02004413           JUNCTION     0.62     1.66     7.13     0  01:42        1.10
  WS02006109           JUNCTION     0.73     2.64     9.26     0  01:41        2.45
  WS02006110           JUNCTION     0.71     2.76     9.34     0  01:41        2.15
  WS02006111           JUNCTION     0.26     2.68     9.39     0  01:41        1.41
  WS02006112           JUNCTION     0.81     2.68     8.56     0  01:40        2.01
  WS02006113           JUNCTION     0.32     2.73     9.62     0  01:41        1.53
  WS02006115           JUNCTION     0.53     3.26     9.40     0  01:40        1.63
  WS02006116           JUNCTION     0.61     3.35     9.39     0  01:40        1.64
  WS02006228           JUNCTION     0.75     3.03     9.68     0  01:41        2.72
  WS02006229           JUNCTION     0.74     3.22     9.91     0  01:41        2.86
  WS02006230           JUNCTION     0.69     2.65     9.39     0  01:41        2.65
  WS02006231           JUNCTION     0.45     2.20     9.32     0  01:41        2.18
  WS02006232           JUNCTION     0.55     2.18     9.22     0  01:41        2.18
  WS02006234           JUNCTION     0.44     1.96     9.12     0  01:40        1.96
  WS02006235           JUNCTION     0.46     2.00     9.16     0  01:40        2.00
  WS02006238           JUNCTION     0.48     2.02     9.17     0  01:40        2.02
  WS02006239           JUNCTION     0.43     2.03     9.24     0  01:39        1.81
  WS02006240           JUNCTION     0.40     2.10     9.39     0  01:39        1.66
  WS02006242           JUNCTION     0.45     1.55     8.82     0  01:40        1.55
  WS02006243           JUNCTION     0.35     1.48     8.90     0  01:40        1.38
  WS02006245           JUNCTION     0.35     1.56     9.04     0  01:40        1.27
  WS02006247           JUNCTION     0.37     1.47     8.97     0  01:40        1.22
  WS02006248           JUNCTION     0.32     1.10     8.69     0  01:40        1.10
  WS02006249           JUNCTION     0.35     1.09     8.69     0  01:40        1.09
  WS02006251           JUNCTION     0.34     1.97     9.64     0  01:49        1.43
  WS02006252           JUNCTION     0.24     1.50     9.74     0  00:00        0.90
  WS02006253           JUNCTION     0.37     2.14     9.79     0  01:41        1.56
  WS02006256           JUNCTION     0.72     2.35     9.28     0  00:00        2.35
  WS02006280           JUNCTION     0.15     1.64     9.91     0  01:41        1.33
  WS02006284           JUNCTION     0.43     1.48     9.88     0  01:41        1.35
  WS02006287           JUNCTION     0.16     0.94     9.90     0  01:43        0.94
  WSF200               JUNCTION     0.18     0.52     5.75     0  01:43        0.49
  YS02001580           JUNCTION     0.00     0.12     8.66     0  01:48        0.12
  YS02001583           JUNCTION     0.04     0.16     8.66     0  01:47        0.16
  YS02001586           JUNCTION     0.07     0.49     8.66     0  01:47        0.48
  YS02001590           JUNCTION     0.14     0.80     8.66     0  01:43        0.78
  YS02001593           JUNCTION     0.08     0.81     8.67     0  01:43        0.75
  YS02001596           JUNCTION     0.11     1.20     8.62     0  01:43        1.17
  YS02001600           JUNCTION     0.15     1.46     8.59     0  01:43        1.44
  YS02001601           JUNCTION     0.34     1.72     8.56     0  01:43        1.71
  YS02001602           JUNCTION     0.27     1.48     8.38     0  01:47        1.47
  YS02001605           JUNCTION     0.25     1.29     8.19     0  01:46        1.28
  YS02001607           JUNCTION     0.26     0.99     7.83     0  01:47        0.98
  YS02001610           JUNCTION     0.31     1.03     7.82     0  01:47        1.02
  YS02001613           JUNCTION     0.27     0.97     7.82     0  01:47        0.97
  YS02001616           JUNCTION     0.20     0.89     7.80     0  01:48        0.89
  YS02001619           JUNCTION     0.18     0.86     7.79     0  01:46        0.86
  YS02001622           JUNCTION     0.17     0.85     7.76     0  01:47        0.85
  YS02001625           JUNCTION     0.43     1.12     7.73     0  01:47        1.12
  YS02001629           JUNCTION     0.28     1.12     7.66     0  01:47        1.11
  YS02001633           JUNCTION     0.36     1.16     7.61     0  01:47        1.15
  YS02001641           JUNCTION     0.36     1.01     7.45     0  01:47        1.01
  YS02001644           JUNCTION     0.36     0.97     7.40     0  01:47        0.97
  YS02001647           JUNCTION     0.15     0.61     7.22     0  01:47        0.61
  YS02001649           JUNCTION     0.28     0.68     7.07     0  01:46        0.68
  YS02001652           JUNCTION     0.10     0.48     7.07     0  01:47        0.48
  YS02001655           JUNCTION     0.04     0.22     7.07     0  01:41        0.22
  YS02001658           JUNCTION     0.04     0.20     7.35     0  01:40        0.20
  YS02001661           JUNCTION     0.10     0.27     7.67     0  01:40        0.27
  YS02001664           JUNCTION     0.03     0.18     8.10     0  01:40        0.18
  YS02001745           JUNCTION     0.03     0.16     7.68     0  01:40        0.16
  YS02001748           JUNCTION     0.03     0.18     7.26     0  01:40        0.18
  YS02001751           JUNCTION     0.03     0.18     7.06     0  01:40        0.18
  YS02001754           JUNCTION     0.08     0.35     6.95     0  01:47        0.34
  YS02001757           JUNCTION     0.38     0.69     6.95     0  01:46        0.69
  YS02001759           JUNCTION     0.29     0.59     6.96     0  01:46        0.59
  YS02001762           JUNCTION     0.26     0.56     6.96     0  01:47        0.56
  YS02001765           JUNCTION     0.22     0.52     6.97     0  01:47        0.51
  YS02001767           JUNCTION     0.19     0.49     6.98     0  01:46        0.48
  YS02001770           JUNCTION     0.19     0.50     7.00     0  01:46        0.50
  YS02001774           JUNCTION     0.25     0.57     6.99     0  01:47        0.57
  YS02001779           JUNCTION     0.03     0.31     7.00     0  01:47        0.31
  YS02001783           JUNCTION     0.14     0.68     6.82     0  01:45        0.68
  YS02001784           JUNCTION     0.16     0.68     6.75     0  01:45        0.68
  YS02001786           JUNCTION     0.14     0.57     6.60     0  01:45        0.57
  YS02001788           JUNCTION     0.10     0.45     6.43     0  01:46        0.45
  YS02001790           JUNCTION     0.12     0.54     6.18     0  01:46        0.54
  YS02001791           JUNCTION     0.08     0.33     5.80     0  01:45        0.32
  YS02001793           JUNCTION     0.04     0.36     5.19     0  01:59        0.31
  YS02001882           JUNCTION     0.18     0.66     7.37     0  01:43        0.65
  YS02001884           JUNCTION     0.27     0.75     7.37     0  01:44        0.75
  YS02001887           JUNCTION     0.34     0.83     7.37     0  01:44        0.83
  YS02001890           JUNCTION     0.37     0.86     7.37     0  01:45        0.86
  YS02001895           JUNCTION     0.15     0.62     7.37     0  01:45        0.62
  YS02001898           JUNCTION     0.16     0.63     7.37     0  01:45        0.63
  YS02001901           JUNCTION     0.27     0.76     7.37     0  01:44        0.76
  YS02001904           JUNCTION     0.25     0.73     7.36     0  01:45        0.73
  YS02001907           JUNCTION     0.57     1.07     7.36     0  01:43        1.07
  YS02001910           JUNCTION     0.36     0.86     7.37     0  01:44        0.86
  YS02001915           JUNCTION     0.18     0.65     7.37     0  01:44        0.65
  YS02001918           JUNCTION     0.06     0.30     7.37     0  01:44        0.30
  YS02001920           JUNCTION     0.14     0.38     7.39     0  01:43        0.38
  YS02001923           JUNCTION     0.04     0.15     7.41     0  01:44        0.15
  YS02001926           JUNCTION     0.09     0.28     7.72     0  01:43        0.28
  YS02001929           JUNCTION     0.04     0.15     7.85     0  01:43        0.15
  YS02006553           JUNCTION     0.57     1.08     7.36     0  01:48        1.06
  YS02006556           JUNCTION     0.54     1.07     7.38     0  01:48        1.03
  YS02006558           JUNCTION     0.59     1.08     7.35     0  01:48        1.06
  YS02006561           JUNCTION     0.08     0.38     7.04     0  01:43        0.38
  YS02163301           JUNCTION     0.30     1.12     7.64     0  01:47        1.12
  YS02163601           JUNCTION     0.41     1.13     7.53     0  01:47        1.13
  YS02164001           JUNCTION     0.34     1.03     7.48     0  01:47        1.03
  YSB1154              JUNCTION     0.31     0.97    10.03     0  01:43        0.97
  YSB1171              JUNCTION     0.46     1.11    10.02     0  01:43        1.10
  YSB1174              JUNCTION     0.26     0.91    10.02     0  01:42        0.91
  YSB6556              JUNCTION     0.21     0.85    10.01     0  01:43        0.84
  CC-1                 OUTFALL      0.00     0.00     0.00     0  00:00        0.00
  CC-2                 OUTFALL      0.00     0.00     0.00     0  00:00        0.00
  JK-1                 OUTFALL      0.00     0.00     0.00     0  00:00        0.00
  JK-2                 OUTFALL      0.00     0.00     0.00     0  00:00        0.00
  WSC                  OUTFALL      0.27     0.49     1.16     0  01:52        0.49
  CC-storage           STORAGE      1.08     1.26     6.76     0  02:07        1.26
  JK-storage           STORAGE      2.92     4.37     5.17     0  02:00        4.37
  XR-storage           STORAGE      7.94     9.26     7.26     0  08:00        9.26
  
  
  *******************
  Node Inflow Summary
  *******************
  
  -------------------------------------------------------------------------------------------------
                                  Maximum  Maximum                  Lateral       Total        Flow
                                  Lateral    Total  Time of Max      Inflow      Inflow     Balance
                                   Inflow   Inflow   Occurrence      Volume      Volume       Error
  Node                 Type           LPS      LPS  days hr:min    10^6 ltr    10^6 ltr     Percent
  -------------------------------------------------------------------------------------------------
  HS02004478           JUNCTION      0.00  1726.29     0  01:41           0        4.04      -0.014
  HS02004479           JUNCTION      0.00   230.17     0  01:38           0       0.392       0.185
  HS02004480           JUNCTION      0.00  1484.85     0  01:41           0        3.01       0.082
  HS02004770           JUNCTION    428.03   528.32     0  01:40       0.832        1.01       0.303
  HS02004777           JUNCTION      0.03   524.17     0  01:41    0.000864        1.01       0.515
  HS02004785           JUNCTION      0.15   522.63     0  01:41     0.00432        1.01       0.047
  HS02004788           JUNCTION    151.64   672.89     0  01:42       0.343        1.35       0.029
  HS02004792           JUNCTION    532.80  1198.35     0  01:41        1.12        2.47       0.013
  HS02004799           JUNCTION     96.76  1274.43     0  01:42        0.16        2.63       0.091
  HS02004802           JUNCTION      0.00   317.98     0  01:53           0        1.04       0.386
  HS02004807           JUNCTION    127.64   305.01     0  01:54       0.205        1.05       0.394
  HS02004817           JUNCTION      0.60   249.07     0  01:54      0.0173       0.859       1.928
  HS02004824           JUNCTION    154.08   237.25     0  01:55       0.421       0.858       0.062
  HS02004830           JUNCTION      0.15   122.44     0  01:38     0.00432       0.453       0.275
  HS02004837           JUNCTION    124.03   214.97     0  01:43       0.392       0.523       0.156
  HS02004842           JUNCTION      0.00   209.10     0  01:44           0       0.204       6.800
  HS02004848           JUNCTION    139.54   328.94     0  01:44       0.378       0.453       0.011
  HS02004852           JUNCTION      0.00   323.20     0  01:44           0       0.338       0.015
  HS02004856           JUNCTION     49.70   356.70     0  01:45      0.0817       0.419       0.342
  HS02004862           JUNCTION     67.08   419.61     0  01:45       0.167       0.585       0.026
  HS02004870           JUNCTION     68.30   473.86     0  01:46       0.112       0.697       0.016
  HS02004876           JUNCTION     71.64   538.27     0  01:46       0.137       0.833       0.059
  HS02004881           JUNCTION     38.69   570.27     0  01:46      0.0608       0.894       0.061
  HS02004901           JUNCTION    103.34   103.34     0  01:40       0.181       0.182       0.970
  WS02001211           JUNCTION      7.35   336.71     0  01:47       0.212        5.45       0.609
  WS02001212           JUNCTION      0.00   384.87     0  01:45           0        5.42       0.290
  WS02001213           JUNCTION      0.00   354.83     0  01:44           0        5.41       0.334
  WS02003059           JUNCTION      0.00   398.10     0  01:44           0        5.41       0.603
  WS02003060           JUNCTION     16.53  1415.50     0  01:51       0.476        11.3       0.144
  WS02003066           JUNCTION      0.00  1175.25     0  01:46           0        5.43       0.037
  WS02003067           JUNCTION      0.00  1169.17     0  01:46           0        5.44       0.097
  WS02003069           JUNCTION      0.32  1387.24     0  01:52     0.00922        11.2       0.154
  WS02003072           JUNCTION      0.00  1382.69     0  01:50           0        11.2       0.204
  WS02003073           JUNCTION      1.82  1387.65     0  01:51      0.0524        11.3       0.212
  WS02004138           JUNCTION      0.00   380.00     0  00:00           0        5.25       0.054
  WS02004139           JUNCTION      0.32   258.97     0  01:46     0.00924        5.26       0.509
  WS02004401           JUNCTION      0.00  1198.68     0  01:43           0        5.56       0.210
  WS02004402           JUNCTION      0.00  1199.31     0  01:43           0        5.55       0.211
  WS02004403           JUNCTION      0.00  1199.43     0  01:43           0        5.54       0.204
  WS02004404           JUNCTION      0.16  1199.84     0  01:43     0.00467        5.53       0.169
  WS02004405           JUNCTION      0.04  1200.64     0  01:43      0.0011        5.53       0.248
  WS02004406           JUNCTION      0.00  1200.86     0  01:42           0        5.51       0.411
  WS02004407           JUNCTION      0.00  1201.12     0  01:42           0        5.49       0.047
  WS02004409           JUNCTION      0.00  1247.35     0  01:41           0        5.49       0.099
  WS02004410           JUNCTION      0.00  1220.12     0  01:42           0        5.48       0.128
  WS02004411           JUNCTION      0.00  1178.09     0  01:42           0        5.47       0.151
  WS02004412           JUNCTION      0.00  1168.45     0  01:46           0        5.47       0.185
  WS02004413           JUNCTION      0.00  1168.96     0  01:46           0        5.46       0.302
  WS02006109           JUNCTION      1.23  1217.42     0  01:40      0.0354        5.45       0.180
  WS02006110           JUNCTION      0.00  1216.83     0  01:40           0        5.44       0.150
  WS02006111           JUNCTION      0.00  1246.18     0  01:41           0        5.43      -0.001
  WS02006112           JUNCTION     89.62  1198.35     0  01:43       0.162        5.59       0.340
  WS02006113           JUNCTION      0.00  1216.20     0  01:40           0        5.43       0.055
  WS02006115           JUNCTION      0.00  1198.17     0  01:43           0        5.57       0.146
  WS02006116           JUNCTION      0.00  1198.42     0  01:43           0        5.57       0.026
  WS02006228           JUNCTION      0.00  1216.73     0  01:40           0        5.42       0.096
  WS02006229           JUNCTION      0.00  1646.50     0  01:43           0        5.96       0.129
  WS02006230           JUNCTION     10.28   539.36     0  01:46       0.296        2.47       0.344
  WS02006231           JUNCTION      0.00   510.23     0  01:38           0        2.13      -0.180
  WS02006232           JUNCTION      0.00   498.57     0  01:39           0        2.11       0.386
  WS02006234           JUNCTION      0.00   498.45     0  01:39           0        2.08      -0.330
  WS02006235           JUNCTION      0.00   518.16     0  01:39           0         2.1       0.401
  WS02006238           JUNCTION      0.00   499.01     0  01:39           0        1.91      -0.341
  WS02006239           JUNCTION      0.00   510.56     0  01:39           0        1.86      -0.371
  WS02006240           JUNCTION      0.00   657.77     0  01:39           0        1.83       0.020
  WS02006242           JUNCTION      0.00   743.96     0  01:40           0         1.8       0.058
  WS02006243           JUNCTION      0.00   663.51     0  01:40           0        1.69      -0.078
  WS02006245           JUNCTION      0.00   444.38     0  01:40           0        1.69       0.796
  WS02006247           JUNCTION      0.00   611.05     0  01:40           0        1.69       0.049
  WS02006248           JUNCTION      0.00   643.85     0  01:40           0        1.72      -0.185
  WS02006249           JUNCTION      0.00   740.16     0  01:49           0         2.2       0.461
  WS02006251           JUNCTION      0.08   735.22     0  01:49     0.00222        2.19      -0.044
  WS02006252           JUNCTION      0.00   400.00     0  00:00           0        1.25      -0.030
  WS02006253           JUNCTION     13.45   587.89     0  01:42      0.0191       0.942      -0.029
  WS02006256           JUNCTION      0.00   300.00     0  00:00           0       0.302      -1.315
  WS02006280           JUNCTION      0.00  1677.32     0  01:41           0        4.04      -0.046
  WS02006284           JUNCTION      0.10  1699.84     0  01:40     0.00275        4.04       0.056
  WS02006287           JUNCTION      0.00  1719.10     0  01:40           0        4.04       0.060
  WSF200               JUNCTION      0.00  1172.67     0  01:46           0        5.43       0.026
  YS02001580           JUNCTION      0.00     9.24     0  01:45           0     0.00066       4.652
  YS02001583           JUNCTION      0.00    16.29     0  01:45           0     0.00247      -9.029
  YS02001586           JUNCTION    175.61   177.58     0  01:48       0.491       0.493       0.124
  YS02001590           JUNCTION      0.00   187.66     0  01:50           0       0.491      -0.008
  YS02001593           JUNCTION      0.00   188.06     0  01:50           0       0.491       0.020
  YS02001596           JUNCTION      0.00   191.85     0  01:53           0       0.491      -0.042
  YS02001600           JUNCTION      0.00   191.37     0  01:53           0       0.491       0.010
  YS02001601           JUNCTION    339.78   478.41     0  01:43       0.706         1.2       0.058
  YS02001602           JUNCTION      0.00   479.61     0  01:43           0         1.2       0.028
  YS02001605           JUNCTION      0.00   480.91     0  01:43           0         1.2       0.032
  YS02001607           JUNCTION      0.00   482.03     0  01:43           0         1.2       0.143
  YS02001610           JUNCTION      0.00   468.07     0  01:45           0        1.19       0.188
  YS02001613           JUNCTION      0.00   465.37     0  01:48           0        1.19       0.134
  YS02001616           JUNCTION      0.00   470.56     0  01:47           0        1.19       0.035
  YS02001619           JUNCTION    289.48   743.79     0  01:46       0.736        1.93       0.001
  YS02001622           JUNCTION      0.00   746.47     0  01:48           0        1.93       0.004
  YS02001625           JUNCTION      0.00   747.14     0  01:48           0        1.93       0.509
  YS02001629           JUNCTION      0.00   747.13     0  01:48           0        1.92       0.035
  YS02001633           JUNCTION    245.42   957.65     0  01:47       0.518        2.44       0.176
  YS02001641           JUNCTION      0.00   957.92     0  01:47           0        2.44       0.140
  YS02001644           JUNCTION    213.53  1138.14     0  01:47       0.421        2.85       0.142
  YS02001647           JUNCTION      0.00  1138.11     0  01:47           0        2.84       0.023
  YS02001649           JUNCTION      0.00  1313.57     0  01:47           0        3.23       0.240
  YS02001652           JUNCTION      0.00   218.25     0  01:41           0       0.388      -0.362
  YS02001655           JUNCTION      0.15   213.96     0  01:40     0.00443       0.387       0.392
  YS02001658           JUNCTION      0.00   213.76     0  01:40           0       0.383      -0.000
  YS02001661           JUNCTION      0.00   213.95     0  01:40           0       0.383       0.091
  YS02001664           JUNCTION    214.08   214.08     0  01:40       0.383       0.383      -0.012
  YS02001745           JUNCTION    144.36   144.36     0  01:40       0.233       0.233      -0.003
  YS02001748           JUNCTION      0.04   144.25     0  01:40      0.0013       0.234       0.000
  YS02001751           JUNCTION      0.01   144.22     0  01:40    0.000317       0.234       0.415
  YS02001754           JUNCTION      0.26   144.43     0  01:40     0.00749       0.245      -0.353
  YS02001757           JUNCTION      0.00  1818.06     0  01:47           0        4.32       0.885
  YS02001759           JUNCTION    204.20   420.21     0  01:42       0.336       0.878       0.638
  YS02001762           JUNCTION      0.00   238.36     0  01:42           0       0.545       0.805
  YS02001765           JUNCTION      0.00   256.21     0  01:41           0       0.543       0.702
  YS02001767           JUNCTION      0.54   268.89     0  01:42      0.0154        0.54       0.767
  YS02001770           JUNCTION    280.22   280.22     0  01:41       0.508       0.545       0.546
  YS02001774           JUNCTION      0.00    39.57     0  01:36           0      0.0373      11.959
  YS02001779           JUNCTION      0.01    14.18     0  01:36    0.000144     0.00604       0.328
  YS02001783           JUNCTION      0.00   744.93     0  01:45           0        1.56       0.016
  YS02001784           JUNCTION      1.06   747.00     0  01:45      0.0305        1.59       0.031
  YS02001786           JUNCTION      0.06   746.34     0  01:45     0.00162        1.59       0.040
  YS02001788           JUNCTION      0.07   746.57     0  01:45     0.00204        1.59       0.020
  YS02001790           JUNCTION      0.15   746.13     0  01:45     0.00446         1.6       0.028
  YS02001791           JUNCTION      0.00   765.78     0  01:45           0         1.6       0.012
  YS02001793           JUNCTION      0.00   745.59     0  01:46           0         1.6       0.017
  YS02001882           JUNCTION      0.00    20.89     0  01:39           0     0.00983       6.939
  YS02001884           JUNCTION      0.00    58.54     0  01:39           0      0.0358       7.493
  YS02001887           JUNCTION    238.33   238.33     0  01:39       0.364       0.388       1.164
  YS02001890           JUNCTION      0.00   201.27     0  01:42           0       0.356       1.455
  YS02001895           JUNCTION      0.00   194.12     0  01:44           0       0.351       0.479
  YS02001898           JUNCTION      0.00   185.05     0  01:44           0        0.35       0.088
  YS02001901           JUNCTION      0.00   189.18     0  01:44           0       0.354       0.928
  YS02001904           JUNCTION      0.00   198.62     0  01:47           0       0.366       0.791
  YS02001907           JUNCTION      0.00   515.53     0  01:47           0        1.13       1.614
  YS02001910           JUNCTION      0.00   344.75     0  01:46           0       0.765       0.944
  YS02001915           JUNCTION    222.32   331.66     0  01:45       0.437       0.767       0.217
  YS02001918           JUNCTION      0.00   118.43     0  01:45           0        0.33       0.092
  YS02001920           JUNCTION      2.87   111.27     0  01:44      0.0827       0.331       0.318
  YS02001923           JUNCTION      0.04   108.41     0  01:44     0.00109       0.248       0.001
  YS02001926           JUNCTION      0.05   108.57     0  01:43      0.0015       0.248       0.091
  YS02001929           JUNCTION    108.59   108.59     0  01:43       0.246       0.246      -0.012
  YS02006553           JUNCTION      0.00   516.16     0  01:47           0        1.12       1.058
  YS02006556           JUNCTION      0.00   516.24     0  01:47           0        1.14       0.719
  YS02006558           JUNCTION    277.65   748.31     0  01:44         0.5         1.6       0.219
  YS02006561           JUNCTION      0.00   745.24     0  01:45           0        1.56      -0.005
  YS02163301           JUNCTION      0.00   750.92     0  01:48           0        1.92       0.109
  YS02163601           JUNCTION      0.11   958.08     0  01:47     0.00317        2.43       0.236
  YS02164001           JUNCTION      0.00   957.83     0  01:47           0        2.43       0.124
  YSB1154              JUNCTION    120.27   120.27     0  01:41       0.221       0.222       0.634
  YSB1171              JUNCTION      0.00   229.70     0  01:38           0       0.391       1.624
  YSB1174              JUNCTION    109.44   109.44     0  01:39       0.162       0.162       0.779
  YSB6556              JUNCTION      0.00   120.33     0  01:41           0       0.223       0.539
  CC-1                 OUTFALL       0.00   683.00     0  00:00           0        1.78       0.000
  CC-2                 OUTFALL       0.00   683.00     0  00:00           0       0.206       0.000
  JK-1                 OUTFALL       0.00  1000.00     0  00:00           0        1.08       0.000
  JK-2                 OUTFALL       0.00  1000.00     0  00:00           0       0.173       0.000
  WSC                  OUTFALL       0.00  1385.06     0  01:52           0        11.2       0.000
  CC-storage           STORAGE       0.00  1800.14     0  01:47           0        6.49       0.248
  JK-storage           STORAGE       0.00   807.71     0  02:00           0        1.75       0.376
  XR-storage           STORAGE     200.00   200.00     0  00:00        5.76        6.36       0.001
  
  
  **********************
  Node Surcharge Summary
  **********************
  
  Surcharging occurs when water rises above the top of the highest conduit.
  ---------------------------------------------------------------------
                                               Max. Height   Min. Depth
                                   Hours       Above Crown    Below Rim
  Node                 Type      Surcharged         Meters       Meters
  ---------------------------------------------------------------------
  HS02004480           JUNCTION        0.11          0.049        1.051
  HS02004792           JUNCTION        0.05          0.059        0.841
  HS02004799           JUNCTION        0.21          0.196        0.864
  HS02004802           JUNCTION        0.09          0.072        1.138
  HS02004807           JUNCTION        0.03          0.060        1.160
  HS02004817           JUNCTION        0.54          0.361        1.379
  WS02004401           JUNCTION        0.84          1.648        0.012
  WS02004402           JUNCTION        0.87          1.319        0.421
  WS02004403           JUNCTION        0.88          1.095        0.935
  WS02004404           JUNCTION        1.03          1.078        1.702
  WS02004405           JUNCTION        1.00          1.011        1.789
  WS02004406           JUNCTION        0.97          0.735        1.715
  WS02004409           JUNCTION        0.30          0.240        2.120
  WS02004410           JUNCTION        0.29          0.266        2.274
  WS02004411           JUNCTION        0.23          0.136        2.394
  WS02004412           JUNCTION        0.16          0.102        2.208
  WS02004413           JUNCTION        0.57          0.663        1.537
  WS02006109           JUNCTION        1.34          1.820        0.000
  WS02006110           JUNCTION        1.17          1.850        0.000
  WS02006111           JUNCTION        0.51          1.870        0.000
  WS02006112           JUNCTION        1.21          1.680        0.000
  WS02006113           JUNCTION        0.54          1.930        0.000
  WS02006115           JUNCTION        0.75          2.250        0.000
  WS02006116           JUNCTION        0.77          2.290        0.000
  WS02006228           JUNCTION        1.34          2.200        0.000
  WS02006229           JUNCTION        0.30          1.039        0.031
  WS02006230           JUNCTION        0.99          1.570        0.000
  WS02006231           JUNCTION        1.04          1.492        0.038
  WS02006232           JUNCTION        1.17          1.480        0.000
  WS02006234           JUNCTION        1.07          1.240        0.000
  WS02006235           JUNCTION        1.12          1.290        0.000
  WS02006238           JUNCTION        1.12          1.301        0.129
  WS02006239           JUNCTION        1.06          1.290        0.000
  WS02006240           JUNCTION        1.03          1.390        0.000
  WS02006242           JUNCTION        1.08          0.820        0.000
  WS02006243           JUNCTION        0.95          0.770        0.000
  WS02006245           JUNCTION        0.91          0.850        0.000
  WS02006247           JUNCTION        0.92          0.760        0.000
  WS02006248           JUNCTION        0.85          0.380        0.000
  WS02006249           JUNCTION        0.87          0.390        0.000
  WS02006251           JUNCTION        0.66          0.940        0.240
  WS02006252           JUNCTION        0.81          1.100        0.000
  WS02006253           JUNCTION        0.67          1.103        1.377
  WS02006256           JUNCTION        7.98          2.050        0.000
  WS02006280           JUNCTION        0.19          0.586        0.194
  WS02006284           JUNCTION        0.12          0.202        0.598
  YS02001590           JUNCTION        0.13          0.147        0.603
  YS02001593           JUNCTION        0.12          0.185        0.655
  YS02001596           JUNCTION        0.27          0.469        0.601
  YS02001600           JUNCTION        0.38          0.777        0.413
  YS02001601           JUNCTION        0.65          1.098        0.342
  YS02001602           JUNCTION        0.56          0.879        0.391
  YS02001605           JUNCTION        0.52          0.685        0.495
  YS02001610           JUNCTION        0.07          0.026        0.654
  YS02001625           JUNCTION        0.19          0.122        0.658
  YS02001633           JUNCTION        0.21          0.140        0.920
  YS02001641           JUNCTION        0.06          0.011        1.089
  YS02001907           JUNCTION        0.18          0.064        0.886
  YS02006553           JUNCTION        0.19          0.077        1.113
  YS02006556           JUNCTION        0.01          0.027        1.323
  YS02163301           JUNCTION        0.19          0.125        0.905
  YS02163601           JUNCTION        0.24          0.134        0.946
  YS02164001           JUNCTION        0.09          0.027        1.073
  YSB1154              JUNCTION        0.31          0.267        1.133
  YSB1171              JUNCTION        0.31          0.262        0.838
  YSB1174              JUNCTION        0.24          0.208        1.042
  YSB6556              JUNCTION        0.18          0.145        0.955
  
  
  *********************
  Node Flooding Summary
  *********************
  
  Flooding refers to all water that overflows a node, whether it ponds or not.
  --------------------------------------------------------------------------
                                                             Total   Maximum
                                 Maximum   Time of Max       Flood    Ponded
                        Hours       Rate    Occurrence      Volume     Depth
  Node                 Flooded       LPS   days hr:min    10^6 ltr    Meters
  --------------------------------------------------------------------------
  WS02006109              0.01     63.39      0  01:41       0.000     0.000
  WS02006110              0.01     35.57      0  01:41       0.000     0.000
  WS02006111              0.01    344.57      0  01:41       0.001     0.000
  WS02006112              0.01    142.81      0  01:41       0.001     0.000
  WS02006113              0.01    158.31      0  01:41       0.000     0.000
  WS02006115              0.01    251.83      0  01:40       0.000     0.000
  WS02006116              0.01     60.33      0  01:40       0.000     0.000
  WS02006228              0.01     36.13      0  01:41       0.000     0.000
  WS02006230              0.13     86.44      0  01:46       0.031     0.000
  WS02006232              0.04      3.69      0  01:41       0.000     0.000
  WS02006234              0.17     73.31      0  01:45       0.030     0.000
  WS02006235              0.01     43.48      0  01:40       0.000     0.000
  WS02006239              0.01     84.25      0  01:39       0.000     0.000
  WS02006240              0.01    458.96      0  01:39       0.001     0.000
  WS02006242              0.26    662.65      0  01:40       0.094     0.000
  WS02006243              0.01    597.37      0  01:40       0.003     0.000
  WS02006245              0.01    336.99      0  01:40       0.001     0.000
  WS02006247              0.01    569.56      0  01:40       0.002     0.000
  WS02006248              0.41    607.53      0  01:40       0.327     0.000
  WS02006249              0.65    738.13      0  01:42       0.788     0.000
  WS02006252              0.01    245.63      0  00:00       0.000     0.000
  WS02006256              0.26    297.33      0  01:44       0.072     0.000
  
  
  **********************
  Storage Volume Summary
  **********************
  
  --------------------------------------------------------------------------------------------------
                         Average     Avg  Evap Exfil       Maximum     Max    Time of Max    Maximum
                          Volume    Pcnt  Pcnt  Pcnt        Volume    Pcnt     Occurrence    Outflow
  Storage Unit           1000 m3    Full  Loss  Loss       1000 m3    Full    days hr:min        LPS
  --------------------------------------------------------------------------------------------------
  CC-storage               3.023      47     0     0         3.506      55       0  02:07    1783.53
  JK-storage               0.147      50     0     0         0.220      75       0  02:00    2300.00
  XR-storage               0.953      66     0     0         1.111      77       0  08:00     380.00
  
  
  ***********************
  Outfall Loading Summary
  ***********************
  
  -----------------------------------------------------------
                         Flow       Avg       Max       Total
                         Freq      Flow      Flow      Volume
  Outfall Node           Pcnt       LPS       LPS    10^6 ltr
  -----------------------------------------------------------
  CC-1                  12.27    683.00    683.00       1.775
  CC-2                   0.59    683.00    683.00       0.206
  JK-1                  10.24    594.28   1000.00       1.076
  JK-2                   1.93    324.39   1000.00       0.173
  WSC                   99.96    503.41   1385.06      11.230
  -----------------------------------------------------------
  System                25.00   2788.09   1385.06      14.460
  
  
  ********************
  Link Flow Summary
  ********************
  
  -----------------------------------------------------------------------------
                                 Maximum  Time of Max   Maximum    Max/    Max/
                                  |Flow|   Occurrence   |Veloc|    Full    Full
  Link                 Type          LPS  days hr:min     m/sec    Flow   Depth
  -----------------------------------------------------------------------------
  1                    CONDUIT   1385.06     0  01:52      3.62    0.48    0.49
  HS02004478WS02006287 CONDUIT   1719.10     0  01:40      2.83    0.48    0.85
  HS02004479HS02004480 CONDUIT    245.57     0  01:40      0.35    0.24    1.00
  HS02004480HS02004478 CONDUIT   1483.38     0  01:41      2.27    6.25    0.95
  HS02004770HS02004777 CONDUIT    524.14     0  01:41      0.84    0.96    0.89
  HS02004777HS02004785 CONDUIT    522.48     0  01:41      0.98    0.64    0.77
  HS02004785HS02004788 CONDUIT    523.01     0  01:42      1.37    3.94    0.57
  HS02004788HS02004792 CONDUIT    672.15     0  01:42      1.46    0.44    0.75
  HS02004792HS02004799 CONDUIT   1182.49     0  01:42      1.73    0.72    1.00
  HS02004799HS02004480 CONDUIT   1274.59     0  01:42      1.82    1.61    1.00
  HS02004802HS02004478 CONDUIT    330.96     0  01:53      0.66    0.29    0.97
  HS02004807HS02004802 CONDUIT    317.98     0  01:53      0.59    0.61    1.00
  HS02004817HS02004807 CONDUIT    249.35     0  01:54      0.41    0.15    1.00
  HS02004817HS02004824 CONDUIT    248.47     0  01:54      0.50    0.11    0.85
  HS02004824HS02004830 CONDUIT    112.24     0  01:55      0.66    0.15    0.65
  HS02004830HS02004837 CONDUIT    122.29     0  01:38      0.81    0.12    0.52
  HS02004837HS02004842 CONDUIT    209.10     0  01:44      0.45    0.12    0.67
  HS02004842HS02004848 CONDUIT    189.46     0  01:44      0.42    0.11    0.65
  HS02004848HS02004852 CONDUIT    323.20     0  01:44      1.11    0.36    0.42
  HS02004852HS02004856 CONDUIT    316.34     0  01:45      0.97    0.36    0.47
  HS02004856HS02004862 CONDUIT    354.90     0  01:45      1.21    0.35    0.42
  HS02004862HS02004870 CONDUIT    421.14     0  01:46      1.48    0.45    0.41
  HS02004870HS02004876 CONDUIT    475.73     0  01:46      1.58    0.32    0.43
  HS02004876HS02004881 CONDUIT    542.98     0  01:46      2.35    5.78    0.35
  HS02004881HS02006253 CONDUIT    576.31     0  01:42      2.79    0.11    0.65
  HS02004901HS02004770 CONDUIT    100.70     0  01:41      0.16    0.38    0.89
  WS02001211WS02001212 CONDUIT    284.11     0  01:50      0.54    0.22    0.68
  WS02001212WS02001213 CONDUIT    296.01     0  01:50      1.04    0.46    0.56
  WS02001213WS02003059 CONDUIT    267.11     0  01:49      0.47    0.44    0.88
  WS02003059WS02003060 CONDUIT    303.33     0  01:44      0.67    0.20    0.78
  WS02003060WS02003069 CONDUIT   1386.92     0  01:52      2.16    0.54    0.58
  WS02003066WSF200     CONDUIT   1172.67     0  01:46      3.54    0.20    0.37
  WS02003067WS02003066 CONDUIT   1175.25     0  01:46      1.91    0.38    0.55
  WS02003069WS02003072 CONDUIT   1382.69     0  01:50      1.84    0.67    0.63
  WS02003072WS02003073 CONDUIT   1385.83     0  01:51      1.99    2.99    0.59
  WS02004138WS02004139 CONDUIT    190.00     0  00:32      2.15    0.04    0.41
  WS02004139WS02001211 CONDUIT    329.37     0  01:47      0.54    0.42    0.60
  WS02004401WS02004402 CONDUIT   1199.31     0  01:43      1.53    1.44    1.00
  WS02004402WS02004403 CONDUIT   1199.43     0  01:43      1.53    1.72    1.00
  WS02004403WS02004404 CONDUIT   1199.68     0  01:43      1.53    0.87    1.00
  WS02004404WS02004405 CONDUIT   1200.61     0  01:43      1.53   11.76    1.00
  WS02004405WS02004406 CONDUIT   1200.86     0  01:42      1.53    2.37    1.00
  WS02004406WS02004407 CONDUIT   1201.12     0  01:42      1.95    0.54    0.86
  WS02004407WS02004409 CONDUIT   1247.35     0  01:41      2.22    0.44    0.86
  WS02004409WS02004410 CONDUIT   1220.12     0  01:42      1.71    1.58    1.00
  WS02004410WS02004411 CONDUIT   1178.09     0  01:42      1.67    1.61    1.00
  WS02004411WS02004412 CONDUIT   1168.45     0  01:46      1.66    1.66    1.00
  WS02004412WS02004413 CONDUIT   1168.96     0  01:46      1.49    0.78    1.00
  WS02004413WS02003067 CONDUIT   1169.17     0  01:46      1.85    0.50    0.75
  WS02006109WS02006110 CONDUIT   1216.83     0  01:40      2.42    2.34    1.00
  WS02006110WS02006113 CONDUIT   1216.20     0  01:40      2.42    1.11    1.00
  WS02006111WS02006112 CONDUIT   1117.28     0  01:43      2.22    0.53    1.00
  WS02006112WS02006115 CONDUIT   1198.17     0  01:43      1.53    0.71    1.00
  WS02006113WS02006111 CONDUIT   1246.18     0  01:41      2.72    1.49    1.00
  WS02006115WS02006116 CONDUIT   1198.42     0  01:43      1.53    1.54    1.00
  WS02006116WS02004401 CONDUIT   1198.68     0  01:43      1.53    1.65    1.00
  WS02006228WS02006109 CONDUIT   1216.19     0  01:40      2.42    5.31    1.00
  WS02006229WS02006228 CONDUIT   1216.73     0  01:40      2.42    4.03    1.00
  WS02006230WS02006229 CONDUIT    529.08     0  01:46      1.37   11.77    1.00
  WS02006231WS02006230 CONDUIT    510.23     0  01:38      1.33    7.74    1.00
  WS02006232WS02006231 CONDUIT    498.57     0  01:39      1.30    1.04    1.00
  WS02006234WS02006232 CONDUIT    498.45     0  01:39      1.41    1.01    1.00
  WS02006235WS02006234 CONDUIT    518.16     0  01:39      1.36    5.47    1.00
  WS02006238WS02006235 CONDUIT    499.01     0  01:39      1.45    1.11    1.00
  WS02006239WS02006238 CONDUIT    510.56     0  01:39      1.33    1.63    1.00
  WS02006240WS02006239 CONDUIT    520.39     0  01:39      1.40    1.64    1.00
  WS02006242WS02006240 CONDUIT    499.49     0  01:40      1.30    1.98    1.00
  WS02006243WS02006242 CONDUIT    417.23     0  01:40      1.34    0.89    1.00
  WS02006245WS02006243 CONDUIT    371.48     0  00:05      1.39    1.10    1.00
  WS02006247WS02006245 CONDUIT    383.09     0  00:05      1.37    3.04    1.00
  WS02006248WS02006247 CONDUIT    385.59     0  00:04      1.38    0.84    1.00
  WS02006249WS02006248 CONDUIT    390.96     0  00:04      1.38    2.14    1.00
  WS02006251WS02006249 CONDUIT    740.16     0  01:49      1.92    2.13    1.00
  WS02006252WS02006251 CONDUIT    400.21     0  00:00      3.88    1.47    1.00
  WS02006253WS02006251 CONDUIT    587.92     0  01:42      1.53    1.76    1.00
  WS02006256WS02006235 CONDUIT    288.93     0  00:00      4.23    3.06    1.00
  WS02006280WS02006229 CONDUIT   1646.50     0  01:43      5.11    0.35    1.00
  WS02006284WS02006280 CONDUIT   1677.32     0  01:41      3.24    0.70    1.00
  WS02006287WS02006284 CONDUIT   1699.74     0  01:40      3.02    0.79    0.97
  WSF200WS02003060     CONDUIT   1252.08     0  01:43      2.95    0.28    0.47
  YS02001580YS02001583 CONDUIT      9.24     0  01:45      0.31    0.04    0.24
  YS02001583YS02001586 CONDUIT     16.29     0  01:45      0.15    0.02    0.49
  YS02001586YS02001590 CONDUIT    187.66     0  01:50      1.27    0.33    0.91
  YS02001590YS02001593 CONDUIT    188.06     0  01:50      1.01    1.18    1.00
  YS02001593YS02001596 CONDUIT    191.85     0  01:53      1.67    0.30    1.00
  YS02001596YS02001600 CONDUIT    191.37     0  01:53      1.16    0.37    1.00
  YS02001600YS02001601 CONDUIT    190.94     0  01:53      0.68    0.33    1.00
  YS02001601YS02001602 CONDUIT    479.61     0  01:43      1.70    1.73    1.00
  YS02001602YS02001605 CONDUIT    480.91     0  01:43      1.70   10.18    1.00
  YS02001605YS02001607 CONDUIT    482.03     0  01:43      1.70    2.64    1.00
  YS02001607YS02001610 CONDUIT    468.07     0  01:45      0.70    0.45    0.99
  YS02001610YS02001613 CONDUIT    465.37     0  01:48      0.67    0.54    0.99
  YS02001613YS02001616 CONDUIT    470.56     0  01:47      0.72    0.40    0.93
  YS02001616YS02001619 CONDUIT    472.11     0  01:48      0.77    0.82    0.87
  YS02001619YS02001622 CONDUIT    746.47     0  01:48      1.41    1.10    0.86
  YS02001622YS02001625 CONDUIT    747.14     0  01:48      0.99    0.40    0.93
  YS02001625YS02001629 CONDUIT    747.13     0  01:48      1.04    0.36    0.87
  YS02001629YS02163301 CONDUIT    750.92     0  01:48      0.96    0.92    1.00
  YS02001633YS02163601 CONDUIT    957.97     0  01:47      1.22    1.01    1.00
  YS02001641YS02001644 CONDUIT    957.99     0  01:47      1.22    3.10    0.98
  YS02001644YS02001647 CONDUIT   1138.11     0  01:47      1.72    0.67    0.79
  YS02001647YS02001649 CONDUIT   1138.47     0  01:47      2.16    0.60    0.64
  YS02001649YS02001757 CONDUIT   1312.01     0  01:47      2.33    0.80    0.69
  YS02001652YS02001649 CONDUIT    209.28     0  01:39      1.09    0.10    0.58
  YS02001655YS02001652 CONDUIT    218.25     0  01:41      1.69    0.11    0.32
  YS02001658YS02001655 CONDUIT    213.81     0  01:40      1.77    0.09    0.21
  YS02001661YS02001658 CONDUIT    213.76     0  01:40      1.92    0.08    0.20
  YS02001664YS02001661 CONDUIT    213.95     0  01:40      1.66    0.07    0.22
  YS02001745YS02001748 CONDUIT    144.21     0  01:40      1.78    0.06    0.16
  YS02001748YS02001751 CONDUIT    144.21     0  01:40      1.49    0.07    0.18
  YS02001751YS02001754 CONDUIT    144.17     0  01:40      1.52    0.07    0.22
  YS02001754YS02001757 CONDUIT    146.66     0  01:43      0.80    0.06    0.51
  YS02001757CaochengTiaoxuchi CONDUIT   1800.14     0  01:47      2.76    0.78    0.83
  YS02001759YS02001757 CONDUIT    399.32     0  01:41      1.24    0.28    0.64
  YS02001762YS02001759 CONDUIT    240.13     0  01:48      0.70    0.28    0.58
  YS02001765YS02001762 CONDUIT    238.36     0  01:42      0.83    0.22    0.54
  YS02001767YS02001765 CONDUIT    256.21     0  01:41      0.93    0.32    0.50
  YS02001770YS02001767 CONDUIT    268.35     0  01:42      0.87    1.06    0.49
  YS02001774YS02001770 CONDUIT     39.57     0  01:36      0.22    0.03    0.52
  YS02001779YS02001774 CONDUIT     14.18     0  01:36      0.10    0.01    0.44
  YS02001783YS02001784 CONDUIT    745.94     0  01:45      1.63    1.03    0.85
  YS02001784YS02001785 CONDUIT    746.29     0  01:45      1.77    1.74    0.78
  YS02001786YS02001788 CONDUIT    746.50     0  01:45      2.22    1.44    0.64
  YS02001788YS02001790 CONDUIT    745.98     0  01:45      2.30    0.55    0.62
  YS02001790YS02001791 CONDUIT    765.78     0  01:45      2.79    0.83    0.54
  YS02001791YS02001793 CONDUIT    745.59     0  01:46      5.71    0.32    0.37
  YS02001793JiankangQianchi CONDUIT    807.71     0  02:00      1.67    0.06    0.68
  YS02001882YS02001884 CONDUIT     20.89     0  01:39      0.14    0.02    0.68
  YS02001884YS02001887 CONDUIT     58.54     0  01:39      0.14    0.08    0.77
  YS02001887YS02001890 CONDUIT    201.27     0  01:42      0.35    0.34    0.82
  YS02001890YS02001895 CONDUIT    194.12     0  01:44      0.35    0.09    0.74
  YS02001895YS02001898 CONDUIT    185.05     0  01:44      0.51    0.32    0.61
  YS02001898YS02001901 CONDUIT    189.18     0  01:44      0.34    0.12    0.69
  YS02001901YS02001904 CONDUIT    198.62     0  01:47      0.40    0.31    0.75
  YS02001904YS02001907 CONDUIT    196.40     0  01:47      0.28    0.07    0.87
  YS02001907YS02006553 CONDUIT    516.16     0  01:47      0.57    0.61    1.00
  YS02001910YS02001907 CONDUIT    346.66     0  01:46      0.49    0.20    0.93
  YS02001915YS02001910 CONDUIT    344.75     0  01:46      0.55    0.17    0.75
  YS02001918YS02001915 CONDUIT    127.43     0  01:45      0.44    0.07    0.48
  YS02001920YS02001918 CONDUIT    118.43     0  01:45      0.71    0.11    0.34
  YS02001923YS02001920 CONDUIT    108.40     0  01:44      0.77    0.05    0.26
  YS02001926YS02001923 CONDUIT    108.37     0  01:44      0.79    0.15    0.23
  YS02001929YS02001926 CONDUIT    108.52     0  01:43      0.87    0.05    0.22
  YS02006553YS02006556 CONDUIT    516.24     0  01:47      0.66    0.44    1.00
  YS02006556YS02006558 CONDUIT    529.79     0  01:47      0.67    0.42    1.00
  YS02006558YS02006561 CONDUIT    745.24     0  01:45      3.15    1.65    0.79
  YS02006561YS02001783 CONDUIT    744.93     0  01:45      2.13    0.39    0.66
  YS02163301YS02001633 CONDUIT    751.37     0  01:48      0.96    0.71    1.00
  YS02163601YS02164001 CONDUIT    957.83     0  01:47      1.22    0.85    1.00
  YS02164001YS02001641 CONDUIT    957.92     0  01:47      1.22    1.31    1.00
  YSB1154YSB6556       CONDUIT    120.33     0  01:41      0.31    0.22    1.00
  YSB1171HS02004479    CONDUIT    230.17     0  01:38      0.54    0.15    1.00
  YSB1174YSB1171       CONDUIT    110.13     0  01:39      0.29    0.17    1.00
  YSB6556YSB1171       CONDUIT    121.77     0  01:40      0.32    0.13    1.00
  CC-R1                PUMP       683.00     0  00:00              1.00
  CC-R2                PUMP       683.00     0  00:00              1.00
  CC-S1                PUMP       200.00     0  00:00              1.00
  CC-S2                PUMP       200.00     0  00:00              1.00
  JK-R1                PUMP      1000.00     0  00:00              1.00
  JK-R2                PUMP      1000.00     0  00:00              1.00
  JK-S                 PUMP       300.00     0  00:00              1.00
  XR-1                 PUMP        95.00     0  00:00              1.00
  XR-2                 PUMP        95.00     0  00:00              1.00
  XR-3                 PUMP        95.00     0  00:00              1.00
  XR-4                 PUMP        95.00     0  00:00              1.00
  
  
  ***************************
  Flow Classification Summary
  ***************************
  
  -------------------------------------------------------------------------------------
                      Adjusted    ---------- Fraction of Time in Flow Class ---------- 
                       /Actual         Up    Down  Sub   Sup   Up    Down  Norm  Inlet 
  Conduit               Length    Dry  Dry   Dry   Crit  Crit  Crit  Crit  Ltd   Ctrl  
  -------------------------------------------------------------------------------------
  1                       1.00   0.00  0.00  0.00  0.00  1.00  0.00  0.00  0.33  0.00
  HS02004478WS02006287    1.00   0.12  0.00  0.00  0.56  0.32  0.00  0.00  0.64  0.00
  HS02004479HS02004480    1.00   0.03  0.00  0.00  0.97  0.00  0.00  0.00  0.12  0.00
  HS02004480HS02004478    1.00   0.09  0.00  0.00  0.48  0.00  0.00  0.43  0.00  0.00
  HS02004770HS02004777    1.00   0.00  0.09  0.00  0.91  0.00  0.00  0.00  0.04  0.00
  HS02004777HS02004785    1.00   0.00  0.00  0.00  1.00  0.00  0.00  0.00  0.14  0.00
  HS02004785HS02004788    1.00   0.00  0.00  0.00  1.00  0.00  0.00  0.00  0.00  0.00
  HS02004788HS02004792    1.00   0.00  0.00  0.00  0.99  0.01  0.00  0.00  0.97  0.00
  HS02004792HS02004799    1.00   0.00  0.00  0.00  0.99  0.01  0.00  0.00  0.93  0.00
  HS02004799HS02004480    1.00   0.00  0.02  0.00  0.88  0.00  0.09  0.00  0.00  0.00
  HS02004802HS02004478    1.00   0.09  0.01  0.00  0.90  0.00  0.00  0.00  0.02  0.00
  HS02004807HS02004802    1.00   0.09  0.00  0.00  0.90  0.00  0.00  0.01  0.00  0.00
  HS02004817HS02004807    1.00   0.00  0.09  0.00  0.91  0.00  0.00  0.00  0.01  0.00
  HS02004817HS02004824    1.00   0.00  0.00  0.00  1.00  0.00  0.00  0.00  0.91  0.00
  HS02004824HS02004830    1.00   0.00  0.00  0.00  1.00  0.00  0.00  0.00  0.00  0.00
  HS02004830HS02004837    1.00   0.00  0.00  0.00  1.00  0.00  0.00  0.00  0.95  0.00
  HS02004837HS02004842    1.00   0.00  0.00  0.00  1.00  0.00  0.00  0.00  0.11  0.00
  HS02004842HS02004848    1.00   0.00  0.09  0.00  0.91  0.00  0.00  0.00  0.63  0.00
  HS02004848HS02004852    1.00   0.09  0.00  0.00  0.91  0.00  0.00  0.00  0.77  0.00
  HS02004852HS02004856    1.00   0.09  0.01  0.00  0.90  0.00  0.00  0.00  0.77  0.00
  HS02004856HS02004862    1.00   0.00  0.13  0.00  0.87  0.00  0.00  0.00  0.79  0.00
  HS02004862HS02004870    1.00   0.00  0.00  0.00  1.00  0.00  0.00  0.00  0.04  0.00
  HS02004870HS02004876    1.00   0.00  0.00  0.00  0.99  0.01  0.00  0.00  0.93  0.00
  HS02004876HS02004881    1.00   0.01  0.00  0.00  0.78  0.21  0.00  0.00  0.00  0.00
  HS02004881HS02006253    1.00   0.03  0.01  0.00  0.40  0.03  0.00  0.54  0.20  0.00
  HS02004901HS02004770    1.00   0.09  0.00  0.00  0.91  0.00  0.00  0.00  0.01  0.00
  WS02001211WS02001212    1.00   0.00  0.02  0.00  0.98  0.00  0.00  0.00  0.00  0.00
  WS02001212WS02001213    1.00   0.02  0.00  0.00  0.39  0.00  0.59  0.00  0.00  0.00
  WS02001213WS02003059    1.00   0.00  0.00  0.00  1.00  0.00  0.00  0.00  0.00  0.00
  WS02003059WS02003060    1.00   0.00  0.00  0.00  1.00  0.00  0.00  0.00  0.03  0.00
  WS02003060WS02003069    1.00   0.00  0.00  0.00  0.99  0.01  0.00  0.00  0.55  0.00
  WS02003066WSF200        1.00   0.08  0.00  0.00  0.00  0.92  0.00  0.00  0.72  0.00
  WS02003067WS02003066    1.00   0.07  0.01  0.00  0.92  0.00  0.00  0.00  0.00  0.00
  WS02003069WS02003072    1.00   0.00  0.00  0.00  1.00  0.00  0.00  0.00  0.72  0.00
  WS02003072WS02003073    1.00   0.00  0.00  0.00  0.00  0.00  0.00  1.00  0.00  0.00
  WS02004138WS02004139    1.00   0.00  0.00  0.00  0.98  0.00  0.00  0.01  0.98  0.00
  WS02004139WS02001211    1.00   0.00  0.00  0.00  1.00  0.00  0.00  0.00  0.00  0.00
  WS02004401WS02004402    1.00   0.02  0.00  0.00  0.98  0.00  0.00  0.00  0.00  0.00
  WS02004402WS02004403    1.00   0.02  0.00  0.00  0.98  0.00  0.00  0.00  0.00  0.00
  WS02004403WS02004404    1.00   0.00  0.02  0.00  0.98  0.00  0.00  0.00  0.00  0.00
  WS02004404WS02004405    1.00   0.00  0.00  0.00  1.00  0.00  0.00  0.00  0.01  0.00
  WS02004405WS02004406    1.00   0.00  0.00  0.00  1.00  0.00  0.00  0.00  0.00  0.00
  WS02004406WS02004407    1.00   0.00  0.03  0.00  0.97  0.00  0.00  0.00  0.00  0.00
  WS02004407WS02004409    1.00   0.03  0.00  0.00  0.95  0.01  0.00  0.00  0.90  0.00
  WS02004409WS02004410    1.00   0.03  0.00  0.00  0.97  0.00  0.00  0.00  0.02  0.00
  WS02004410WS02004411    1.00   0.04  0.00  0.00  0.96  0.00  0.00  0.00  0.00  0.00
  WS02004411WS02004412    1.00   0.04  0.00  0.00  0.96  0.00  0.00  0.00  0.00  0.00
  WS02004412WS02004413    1.00   0.04  0.00  0.00  0.96  0.00  0.00  0.00  0.01  0.00
  WS02004413WS02003067    1.00   0.04  0.03  0.00  0.00  0.00  0.93  0.00  0.00  0.00
  WS02006109WS02006110    1.00   0.00  0.01  0.00  0.99  0.00  0.01  0.00  0.00  0.00
  WS02006110WS02006113    1.00   0.01  0.01  0.00  0.99  0.00  0.00  0.00  0.00  0.00
  WS02006111WS02006112    1.00   0.01  0.00  0.00  0.98  0.00  0.00  0.00  0.85  0.00
  WS02006112WS02006115    1.00   0.01  0.00  0.00  0.98  0.00  0.00  0.00  0.00  0.00
  WS02006113WS02006111    1.00   0.01  0.00  0.00  0.14  0.84  0.00  0.00  0.08  0.00
  WS02006115WS02006116    1.00   0.02  0.00  0.00  0.98  0.00  0.00  0.00  0.00  0.00
  WS02006116WS02004401    1.00   0.02  0.00  0.00  0.98  0.00  0.00  0.00  0.00  0.00
  WS02006228WS02006109    1.00   0.00  0.00  0.00  1.00  0.00  0.00  0.00  0.00  0.00
  WS02006229WS02006228    1.00   0.00  0.00  0.00  0.99  0.00  0.00  0.00  0.00  0.00
  WS02006230WS02006229    1.00   0.00  0.00  0.00  0.99  0.00  0.00  0.01  0.00  0.00
  WS02006231WS02006230    1.00   0.00  0.00  0.00  0.37  0.00  0.63  0.00  0.00  0.00
  WS02006232WS02006231    1.00   0.00  0.00  0.00  0.99  0.00  0.00  0.00  0.00  0.00
  WS02006234WS02006232    1.00   0.00  0.00  0.00  1.00  0.00  0.00  0.00  0.00  0.00
  WS02006235WS02006234    1.00   0.00  0.00  0.00  0.76  0.00  0.24  0.00  0.00  0.00
  WS02006238WS02006235    1.00   0.00  0.00  0.00  1.00  0.00  0.00  0.00  0.00  0.00
  WS02006239WS02006238    1.00   0.00  0.00  0.00  1.00  0.00  0.00  0.00  0.04  0.00
  WS02006240WS02006239    1.00   0.00  0.00  0.00  0.59  0.00  0.00  0.41  0.01  0.00
  WS02006242WS02006240    1.00   0.00  0.00  0.00  0.98  0.00  0.02  0.00  0.00  0.00
  WS02006243WS02006242    1.00   0.00  0.00  0.00  0.99  0.00  0.00  0.01  0.68  0.00
  WS02006245WS02006243    1.00   0.00  0.00  0.00  0.91  0.00  0.00  0.09  0.01  0.00
  WS02006247WS02006245    1.00   0.00  0.00  0.00  0.97  0.00  0.00  0.03  0.00  0.00
  WS02006248WS02006247    1.00   0.00  0.00  0.00  0.99  0.00  0.00  0.01  0.70  0.00
  WS02006249WS02006248    1.00   0.00  0.00  0.00  0.49  0.00  0.51  0.00  0.00  0.00
  WS02006251WS02006249    1.00   0.00  0.00  0.00  1.00  0.00  0.00  0.00  0.71  0.00
  WS02006252WS02006251    1.00   0.00  0.02  0.00  0.13  0.00  0.85  0.00  0.00  0.00
  WS02006253WS02006251    1.00   0.00  0.00  0.00  1.00  0.00  0.00  0.00  0.00  0.00
  WS02006256WS02006235    1.00   0.00  0.00  0.00  1.00  0.00  0.00  0.00  0.00  0.00
  WS02006280WS02006229    1.00   0.09  0.00  0.00  0.08  0.05  0.00  0.78  0.01  0.00
  WS02006284WS02006280    1.00   0.09  0.00  0.00  0.05  0.01  0.00  0.85  0.00  0.00
  WS02006287WS02006284    1.00   0.07  0.05  0.00  0.45  0.43  0.00  0.01  0.71  0.00
  WSF200WS02003060        1.00   0.00  0.08  0.00  0.60  0.31  0.00  0.00  0.66  0.00
  YS02001580YS02001583    1.00   0.16  0.66  0.00  0.18  0.00  0.00  0.00  0.77  0.00
  YS02001583YS02001586    1.00   0.39  0.30  0.00  0.30  0.00  0.00  0.00  0.77  0.00
  YS02001586YS02001590    1.00   0.09  0.00  0.00  0.47  0.03  0.00  0.41  0.31  0.00
  YS02001590YS02001593    1.00   0.09  0.01  0.00  0.05  0.00  0.85  0.00  0.00  0.00
  YS02001593YS02001596    1.00   0.10  0.00  0.00  0.07  0.01  0.00  0.83  0.02  0.00
  YS02001596YS02001600    1.00   0.10  0.00  0.00  0.14  0.04  0.00  0.72  0.05  0.00
  YS02001600YS02001601    1.00   0.09  0.01  0.00  0.90  0.00  0.00  0.00  0.68  0.00
  YS02001601YS02001602    1.00   0.09  0.01  0.00  0.90  0.00  0.00  0.00  0.00  0.00
  YS02001602YS02001605    1.00   0.10  0.00  0.00  0.90  0.00  0.00  0.00  0.00  0.00
  YS02001605YS02001607    1.00   0.10  0.00  0.00  0.90  0.00  0.00  0.00  0.00  0.00
  YS02001607YS02001610    1.00   0.09  0.01  0.00  0.90  0.00  0.00  0.00  0.02  0.00
  YS02001610YS02001613    1.00   0.09  0.00  0.00  0.91  0.00  0.00  0.00  0.02  0.00
  YS02001613YS02001616    1.00   0.09  0.00  0.00  0.91  0.00  0.00  0.00  0.01  0.00
  YS02001616YS02001619    1.00   0.09  0.00  0.00  0.91  0.00  0.00  0.00  0.00  0.00
  YS02001619YS02001622    1.00   0.09  0.00  0.00  0.91  0.00  0.00  0.00  0.39  0.00
  YS02001622YS02001625    1.00   0.09  0.00  0.00  0.91  0.00  0.00  0.00  0.06  0.00
  YS02001625YS02001629    1.00   0.09  0.04  0.00  0.09  0.00  0.78  0.00  0.00  0.00
  YS02001629YS02163301    1.00   0.12  0.01  0.00  0.88  0.00  0.00  0.00  0.00  0.00
  YS02001633YS02163601    1.00   0.00  0.00  0.00  1.00  0.00  0.00  0.00  0.16  0.00
  YS02001641YS02001644    1.00   0.00  0.00  0.00  1.00  0.00  0.00  0.00  0.00  0.00
  YS02001644YS02001647    1.00   0.00  0.13  0.00  0.87  0.00  0.00  0.00  0.00  0.00
  YS02001647YS02001649    1.00   0.00  0.13  0.00  0.75  0.12  0.00  0.00  0.21  0.00
  YS02001649YS02001757    1.00   0.00  0.00  0.00  1.00  0.00  0.00  0.00  0.20  0.00
  YS02001652YS02001649    1.00   0.00  0.00  0.00  0.97  0.03  0.00  0.00  0.16  0.00
  YS02001655YS02001652    1.00   0.00  0.00  0.00  0.63  0.07  0.00  0.30  0.72  0.00
  YS02001658YS02001655    1.00   0.00  0.10  0.00  0.42  0.48  0.00  0.00  0.81  0.00
  YS02001661YS02001658    1.00   0.10  0.00  0.00  0.34  0.55  0.00  0.00  0.79  0.00
  YS02001664YS02001661    1.00   0.09  0.00  0.00  0.82  0.09  0.00  0.00  0.87  0.00
  YS02001745YS02001748    1.00   0.00  0.00  0.00  0.00  0.00  0.00  1.00  0.00  0.00
  YS02001748YS02001751    1.00   0.00  0.00  0.00  0.60  0.40  0.00  0.00  0.85  0.00
  YS02001751YS02001754    1.00   0.00  0.00  0.00  0.50  0.07  0.00  0.44  0.59  0.00
  YS02001754YS02001757    1.00   0.00  0.00  0.00  1.00  0.00  0.00  0.00  0.24  0.00
  YS02001757CaochengTiaoxuchi    1.00   0.00  0.00  0.00  0.99  0.01  0.00  0.00  0.20  0.00
  YS02001759YS02001757    1.00   0.00  0.00  0.00  1.00  0.00  0.00  0.00  0.06  0.00
  YS02001762YS02001759    1.00   0.00  0.00  0.00  1.00  0.00  0.00  0.00  0.05  0.00
  YS02001765YS02001762    1.00   0.00  0.00  0.00  1.00  0.00  0.00  0.00  0.17  0.00
  YS02001767YS02001765    1.00   0.00  0.00  0.00  1.00  0.00  0.00  0.00  0.00  0.00
  YS02001770YS02001767    1.00   0.00  0.00  0.00  1.00  0.00  0.00  0.00  0.00  0.00
  YS02001774YS02001770    1.00   0.00  0.10  0.00  0.90  0.00  0.00  0.00  0.04  0.00
  YS02001779YS02001774    1.00   0.00  0.00  0.00  1.00  0.00  0.00  0.00  0.83  0.00
  YS02001783YS02001784    1.00   0.00  0.13  0.00  0.87  0.00  0.00  0.00  0.60  0.00
  YS02001784YS02001785    1.00   0.00  0.00  0.00  1.00  0.00  0.00  0.00  0.18  0.00
  YS02001786YS02001788    1.00   0.00  0.00  0.00  0.64  0.36  0.00  0.00  0.00  0.00
  YS02001788YS02001790    1.00   0.00  0.00  0.00  0.14  0.86  0.00  0.00  0.92  0.00
  YS02001790YS02001791    1.00   0.00  0.00  0.00  0.01  0.99  0.00  0.00  0.16  0.00
  YS02001791YS02001793    1.00   0.00  0.00  0.00  0.00  1.00  0.00  0.00  0.00  0.00
  YS02001793JiankangQianchi    1.00   0.00  0.00  0.00  1.00  0.00  0.00  0.00  0.99  0.00
  YS02001882YS02001884    1.00   0.11  0.01  0.00  0.88  0.00  0.00  0.00  0.00  0.00
  YS02001884YS02001887    1.00   0.04  0.04  0.00  0.92  0.00  0.00  0.00  0.00  0.00
  YS02001887YS02001890    1.00   0.00  0.00  0.00  0.98  0.00  0.02  0.00  0.00  0.00
  YS02001890YS02001895    1.00   0.00  0.12  0.00  0.88  0.00  0.00  0.00  0.00  0.00
  YS02001895YS02001898    1.00   0.13  0.00  0.00  0.86  0.00  0.01  0.00  0.00  0.00
  YS02001898YS02001901    1.00   0.12  0.00  0.00  0.87  0.00  0.00  0.00  0.01  0.00
  YS02001901YS02001904    1.00   0.12  0.00  0.00  0.88  0.00  0.00  0.00  0.00  0.00
  YS02001904YS02001907    1.00   0.00  0.12  0.00  0.88  0.00  0.00  0.00  0.00  0.00
  YS02001907YS02006553    1.00   0.00  0.01  0.00  0.98  0.00  0.00  0.00  0.00  0.00
  YS02001910YS02001907    1.00   0.00  0.00  0.00  0.98  0.00  0.00  0.02  0.13  0.00
  YS02001915YS02001910    1.00   0.00  0.00  0.00  0.98  0.02  0.00  0.00  0.17  0.00
  YS02001918YS02001915    1.00   0.00  0.00  0.00  0.98  0.01  0.00  0.00  0.82  0.00
  YS02001920YS02001918    1.00   0.00  0.00  0.00  1.00  0.00  0.00  0.00  0.00  0.00
  YS02001923YS02001920    1.00   0.00  0.00  0.00  1.00  0.00  0.00  0.00  1.00  0.00
  YS02001926YS02001923    1.00   0.00  0.05  0.00  0.00  0.00  0.95  0.00  0.00  0.00
  YS02001929YS02001926    1.00   0.00  0.09  0.00  0.91  0.00  0.00  0.00  0.87  0.00
  YS02006553YS02006556    1.00   0.01  0.00  0.00  0.99  0.00  0.00  0.00  0.03  0.00
  YS02006556YS02006558    1.00   0.00  0.00  0.00  1.00  0.00  0.00  0.00  0.00  0.00
  YS02006558YS02006561    1.00   0.13  0.00  0.00  0.00  0.87  0.00  0.00  0.20  0.00
  YS02006561YS02001783    1.00   0.13  0.00  0.00  0.01  0.85  0.00  0.00  0.75  0.00
  YS02163301YS02001633    1.00   0.00  0.12  0.00  0.88  0.00  0.00  0.00  0.00  0.00
  YS02163601YS02164001    1.00   0.00  0.05  0.00  0.95  0.00  0.00  0.00  0.00  0.00
  YS02164001YS02001641    1.00   0.00  0.05  0.00  0.94  0.00  0.00  0.00  0.06  0.00
  YSB1154YSB6556          1.00   0.08  0.00  0.00  0.92  0.00  0.00  0.00  0.02  0.00
  YSB1171HS02004479       1.00   0.03  0.00  0.00  0.96  0.00  0.00  0.01  0.11  0.00
  YSB1174YSB1171          1.00   0.03  0.03  0.00  0.94  0.00  0.00  0.00  0.00  0.00
  YSB6556YSB1171          1.00   0.03  0.06  0.00  0.92  0.00  0.00  0.00  0.00  0.00
  
  
  *************************
  Conduit Surcharge Summary
  *************************
  
  ----------------------------------------------------------------------------
                                                           Hours        Hours 
                         --------- Hours Full --------   Above Full   Capacity
  Conduit                Both Ends  Upstream  Dnstream   Normal Flow   Limited
  ----------------------------------------------------------------------------
  HS02004478WS02006287        0.01      0.01      0.08      0.01         0.01
  HS02004479HS02004480        0.11      0.11      0.15      0.01         0.01
  HS02004480HS02004478        0.01      0.11      0.01      0.99         0.01
  HS02004785HS02004788        0.01      0.01      0.01      0.69         0.01
  HS02004788HS02004792        0.01      0.01      0.05      0.01         0.01
  HS02004792HS02004799        0.05      0.05      0.21      0.01         0.01
  HS02004799HS02004480        0.11      0.11      0.21      0.28         0.01
  HS02004802HS02004478        0.01      0.01      0.10      0.01         0.01
  HS02004807HS02004802        0.03      0.03      0.09      0.01         0.01
  HS02004817HS02004807        0.03      0.03      0.54      0.01         0.01
  HS02004817HS02004824        0.01      0.01      0.54      0.01         0.01
  HS02004876HS02004881        0.01      0.01      0.01      0.69         0.01
  HS02004881HS02006253        0.01      0.01      0.67      0.01         0.01
  WS02003072WS02003073        0.01      0.01      0.01      1.73         0.01
  WS02004401WS02004402        0.84      0.84      0.87      0.67         0.65
  WS02004402WS02004403        0.87      0.87      0.88      0.85         0.83
  WS02004403WS02004404        0.88      0.88      1.03      0.01         0.01
  WS02004404WS02004405        1.00      1.03      1.00      2.35         1.00
  WS02004405WS02004406        0.97      1.00      0.97      1.19         0.97
  WS02004406WS02004407        0.01      0.01      0.97      0.01         0.01
  WS02004407WS02004409        0.01      0.01      0.30      0.01         0.01
  WS02004409WS02004410        0.29      0.30      0.29      0.75         0.29
  WS02004410WS02004411        0.23      0.29      0.23      0.80         0.23
  WS02004411WS02004412        0.16      0.23      0.16      0.84         0.16
  WS02004412WS02004413        0.16      0.16      0.57      0.01         0.01
  WS02004413WS02003067        0.01      0.01      0.57      0.01         0.01
  WS02006109WS02006110        1.17      1.17      1.40      1.17         0.01
  WS02006110WS02006113        0.54      0.54      1.36      0.06         0.01
  WS02006111WS02006112        0.51      0.51      1.66      0.01         0.01
  WS02006112WS02006115        0.75      0.75      1.21      0.01         0.01
  WS02006113WS02006111        0.53      0.54      0.53      0.65         0.53
  WS02006115WS02006116        0.76      0.77      0.77      0.76         0.72
  WS02006116WS02004401        0.84      0.84      0.84      0.83         0.79
  WS02006228WS02006109        1.34      1.40      1.34      1.83         1.34
  WS02006229WS02006228        1.34      1.35      1.34      1.59         1.33
  WS02006230WS02006229        1.47      1.50      1.47      3.05         1.08
  WS02006231WS02006230        0.99      0.99      1.05      2.51         0.34
  WS02006232WS02006231        1.04      1.04      1.17      0.01         0.04
  WS02006234WS02006232        1.11      1.11      1.17      0.01         0.01
  WS02006235WS02006234        1.07      1.07      1.12      2.07         0.31
  WS02006238WS02006235        1.12      1.12      1.13      0.01         0.08
  WS02006239WS02006238        1.12      1.12      1.12      0.25         0.01
  WS02006240WS02006239        1.04      1.04      1.06      0.25         0.01
  WS02006242WS02006240        1.02      1.03      1.10      0.84         0.25
  WS02006243WS02006242        0.97      0.97      1.08      0.01         0.01
  WS02006245WS02006243        0.93      0.93      0.95      0.04         0.01
  WS02006247WS02006245        0.91      0.93      0.91      1.59         0.53
  WS02006248WS02006247        0.87      0.87      0.92      0.01         0.01
  WS02006249WS02006248        0.84      0.85      0.87      1.09         0.01
  WS02006251WS02006249        0.84      0.84      0.87      0.49         0.41
  WS02006252WS02006251        0.75      0.75      0.81      0.08         0.01
  WS02006253WS02006251        0.83      0.84      0.86      0.23         0.01
  WS02006256WS02006235        2.30      2.32      7.97      0.26         0.01
  WS02006280WS02006229        0.20      0.20      0.30      0.01         0.01
  WS02006284WS02006280        0.12      0.12      0.19      0.01         0.01
  WS02006287WS02006284        0.01      0.01      0.13      0.01         0.01
  YS02001586YS02001590        0.01      0.01      0.13      0.01         0.01
  YS02001590YS02001593        0.12      0.12      0.16      0.13         0.01
  YS02001593YS02001596        0.14      0.14      0.27      0.01         0.01
  YS02001596YS02001600        0.31      0.31      0.38      0.01         0.01
  YS02001600YS02001601        0.42      0.42      0.65      0.01         0.01
  YS02001601YS02001602        0.56      0.56      0.69      0.41         0.01
  YS02001602YS02001605        0.52      0.52      0.56      1.57         0.01
  YS02001605YS02001607        0.48      0.52      0.48      0.62         0.48
  YS02001607YS02001610        0.01      0.01      0.07      0.01         0.01
  YS02001610YS02001613        0.01      0.01      0.07      0.01         0.01
  YS02001619YS02001622        0.01      0.01      0.01      0.15         0.01
  YS02001622YS02001625        0.01      0.01      0.19      0.01         0.01
  YS02001625YS02001629        0.01      0.01      0.19      0.01         0.01
  YS02001629YS02163301        0.18      0.18      0.19      0.01         0.01
  YS02001633YS02163601        0.21      0.21      0.24      0.04         0.03
  YS02001641YS02001644        0.01      0.06      0.01      0.74         0.01
  YS02001757CaochengTiaoxuchi        0.01      0.01      6.17      0.01         0.01
  YS02001770YS02001767        0.01      0.01      0.01      0.06         0.01
  YS02001783YS02001784        0.01      0.01      0.01      0.05         0.01
  YS02001784YS02001785        0.01      0.01      0.01      0.32         0.01
  YS02001786YS02001788        0.01      0.01      0.01      0.22         0.01
  YS02001793JiankangQianchi        0.01      0.01      7.70      0.01         0.01
  YS02001904YS02001907        0.01      0.01      0.20      0.01         0.01
  YS02001907YS02006553        0.33      0.33      0.37      0.01         0.01
  YS02001910YS02001907        0.01      0.01      0.18      0.01         0.01
  YS02006553YS02006556        0.01      0.01      0.19      0.01         0.01
  YS02006556YS02006558        0.11      0.11      0.21      0.01         0.01
  YS02006558YS02006561        0.01      0.01      0.01      0.29         0.01
  YS02163301YS02001633        0.19      0.19      0.23      0.01         0.01
  YS02163601YS02164001        0.09      0.09      0.24      0.01         0.01
  YS02164001YS02001641        0.06      0.09      0.06      0.28         0.06
  YSB1154YSB6556              0.18      0.18      0.31      0.01         0.01
  YSB1171HS02004479           0.01      0.01      0.31      0.01         0.01
  YSB1174YSB1171              0.24      0.24      0.47      0.01         0.01
  YSB6556YSB1171              0.18      0.18      0.58      0.01         0.01
  
  
  ***************
  Pumping Summary
  ***************
  
  ---------------------------------------------------------------------------------------------------------
                                                  Min       Avg       Max     Total     Power    % Time Off
                        Percent   Number of      Flow      Flow      Flow    Volume     Usage    Pump Curve
  Pump                 Utilized   Start-Ups       LPS       LPS       LPS  10^6 ltr     Kw-hr    Low   High
  ---------------------------------------------------------------------------------------------------------
  CC-R1                    9.02           6      0.00    683.00    683.00     1.775     32.18    0.0   11.5
  CC-R2                    1.04           1      0.00    683.00    683.00     0.205      3.46    0.0  100.0
  CC-S1                   97.92           2      0.00     24.76    200.00     0.413      2.32    0.0    0.0
  CC-S2                   95.93           4      0.00     62.13    200.00     0.833      4.60    0.0    0.0
  JK-R1                    5.80           6      0.00    594.28   1000.00     1.075     11.32    0.0    0.0
  JK-R2                    1.63           2      0.00    324.39   1000.00     0.172      1.60    0.0    0.0
  JK-S                    21.02          10      0.00     24.58    300.00     0.301      4.08    0.0    0.0
  XR-1                    97.91           2      0.00     95.00     95.00     2.679      9.63    0.0    0.0
  XR-2                    93.95           2      0.00     95.00     95.00     2.570      8.79    0.0    0.0
  XR-3                     0.00           1      0.00     95.00     95.00     0.000      0.00    0.0    0.0
  XR-4                     0.00           1      0.00     95.00     95.00     0.000      0.00    0.0    0.0
  

  Analysis begun on:  Sun Jun 25 21:04:40 2023
  Analysis ended on:  Sun Jun 25 21:04:52 2023
  Total elapsed time: 00:00:12