
  OWA STORM WATER MANAGEMENT MODEL - VERSION v5.2.3 (OWA 2023-06-06)
  ------------------------------------------------------------

  WARNING 04: minimum elevation drop used for Conduit WS02004404WS02004405
  WARNING 03: negative offset ignored for Link YS02001904YS02001907
  
  ****************
  Analysis Options
  ****************
  Flow Units ............... LPS
  Process Models:
    Rainfall/Runoff ........ YES
    RDII ................... NO
    Snowmelt ............... NO
    Groundwater ............ NO
    Flow Routing ........... YES
    Ponding Allowed ........ NO
    Water Quality .......... NO
  Infiltration Method ...... HORTON
  Flow Routing Method ...... DYNWAVE
  Surcharge Method ......... EXTRAN
  Starting Date ............ 08/28/2015 08:00:00
  Ending Date .............. 08/28/2015 16:00:00
  Antecedent Dry Days ...... 8.0
  Report Time Step ......... 00:01:00
  Wet Time Step ............ 00:01:00
  Dry Time Step ............ 00:01:00
  Routing Time Step ........ 30.00 sec
  Variable Time Step ....... YES
  Maximum Trials ........... 8
  Number of Threads ........ 2
  Head Tolerance ........... 0.001500 m
  
  
  **************************        Volume         Depth
  Runoff Quantity Continuity     hectare-m            mm
  **************************     ---------       -------
  Initial LID Storage ......         0.049         1.488
  Total Precipitation ......         1.650        49.740
  Evaporation Loss .........         0.000         0.000
  Infiltration Loss ........         0.074         2.224
  Surface Runoff ...........         1.203        36.267
  Final Storage ............         0.423        12.761
  Continuity Error (%) .....        -0.048
  
  
  **************************        Volume        Volume
  Flow Routing Continuity        hectare-m      10^6 ltr
  **************************     ---------     ---------
  Dry Weather Inflow .......         0.025         0.251
  Wet Weather Inflow .......         1.202        12.023
  Groundwater Inflow .......         0.000         0.000
  RDII Inflow ..............         0.000         0.000
  External Inflow ..........         0.083         0.834
  External Outflow .........         1.259        12.588
  Flooding Loss ............         0.145         1.449
  Evaporation Loss .........         0.000         0.000
  Exfiltration Loss ........         0.000         0.000
  Initial Stored Volume ....         0.243         2.431
  Final Stored Volume ......         0.181         1.814
  Continuity Error (%) .....        -2.013
  
  
  *************************
  Highest Continuity Errors
  *************************
  Node YS02001583 (-15.32%)
  Node YS02001884 (5.01%)
  Node WS02006256 (-3.08%)
  Node YS02001774 (1.69%)
  Node WS02006111 (-1.07%)
  
  
  ***************************
  Time-Step Critical Elements
  ***************************
  Link WS02006238WS02006235 (23.98%)
  Link WS02006252WS02006251 (23.33%)
  Link WS02004404WS02004405 (21.64%)
  Link WS02003066WSF200 (7.03%)
  Link YS02001791YS02001793 (5.64%)
  
  
  ********************************
  Highest Flow Instability Indexes
  ********************************
  Link WS02006113WS02006111 (34)
  Link WS02006256WS02006235 (19)
  Link WS02006238WS02006235 (15)
  Link WS02006111WS02006112 (15)
  Link WS02006252WS02006251 (14)
  
  
  *********************************
  Most Frequent Nonconverging Nodes
  *********************************
  Node CC-1 (13.86%)
  Node CC-2 (13.86%)
  Node JK-1 (13.86%)
  Node JK-2 (13.86%)
  Node WSC (13.86%)
  
  
  *************************
  Routing Time Step Summary
  *************************
  Minimum Time Step           :     0.02 sec
  Average Time Step           :     2.81 sec
  Maximum Time Step           :    30.00 sec
  % of Time in Steady State   :     0.00
  Average Iterations per Step :     3.31
  % of Steps Not Converging   :    13.86
  Time Step Frequencies       :
     30.000 - 13.228 sec      :     0.01 %
     13.228 -  5.833 sec      :    15.57 %
      5.833 -  2.572 sec      :    31.23 %
      2.572 -  1.134 sec      :    23.50 %
      1.134 -  0.500 sec      :    29.69 %
  
  
  ***************************
  Subcatchment Runoff Summary
  ***************************
  
  ------------------------------------------------------------------------------------------------------------------------------
                            Total      Total      Total      Total     Imperv       Perv      Total       Total     Peak  Runoff
                           Precip      Runon       Evap      Infil     Runoff     Runoff     Runoff      Runoff   Runoff   Coeff
  Subcatchment                 mm         mm         mm         mm         mm         mm         mm    10^6 ltr      LPS
  ------------------------------------------------------------------------------------------------------------------------------
  sub60                     49.74       0.00       0.00       1.36      32.86       3.25      36.11        0.47   282.47   0.726
  sub61                     49.74       0.00       0.00       2.07      32.83       4.84      37.67        0.69   405.71   0.757
  sub62                     49.74       0.00       0.00       0.92      34.99       2.21      37.20        1.02   558.64   0.748
  sub63                     49.74       0.00       0.00       3.75      28.12       8.05      36.17        0.82   437.93   0.727
  sub64                     49.74       0.00       0.00       1.81      32.01       4.01      36.01        0.87   442.17   0.724
  sub65                     49.74       0.00       0.00       1.66      34.54       3.66      38.20        1.05   515.20   0.768
  sub66                     49.74       0.00       0.00       4.30      27.17       7.13      34.31        1.60   637.75   0.690
  sub67                     49.74       0.00       0.00       0.92      35.88       2.29      38.17        0.71   445.64   0.767
  sub68                     49.74       0.00       0.00       1.59      31.68       3.72      35.40        0.97   552.60   0.712
  sub69                     49.74       0.00       0.00       1.43      33.43       4.49      37.91        1.40   678.44   0.762
  sub70                     49.74       0.00       0.00       4.67      26.77       9.18      35.95        1.04   373.93   0.723
  sub71                     49.74       0.00       0.00       0.85      31.78       2.00      33.78        0.88   454.30   0.679
  sub72                     49.74       0.00       0.00       0.81      34.32       1.86      36.18        0.50   229.54   0.727
  

  ***********************
  LID Performance Summary
  ***********************

  --------------------------------------------------------------------------------------------------------------------
                                         Total      Evap     Infil   Surface    Drain    Initial     Final  Continuity
                                        Inflow      Loss      Loss   Outflow   Outflow   Storage   Storage       Error
  Subcatchment      LID Control             mm        mm        mm        mm        mm        mm        mm           %
  --------------------------------------------------------------------------------------------------------------------
  sub60             GreenRoof            49.74      0.00      0.00      0.00      0.00      7.05     56.86       -0.13
  sub61             GreenRoof            49.74      0.00      0.00      0.00      0.00      7.05     56.86       -0.13
  sub62             GreenRoof            49.74      0.00      0.00      0.00      0.00      7.05     56.86       -0.13
  sub63             GreenRoof            49.74      0.00      0.00      0.00      0.00      7.05     56.86       -0.13
  sub64             GreenRoof            49.74      0.00      0.00      0.00      0.00      7.05     56.86       -0.13
  sub65             GreenRoof            49.74      0.00      0.00      0.00      0.00      7.05     56.86       -0.13
  sub66             GreenRoof            49.74      0.00      0.00      0.00      0.00      7.05     56.86       -0.13
  sub67             GreenRoof            49.74      0.00      0.00      0.00      0.00      7.05     56.86       -0.13
  sub68             GreenRoof            49.74      0.00      0.00      0.00      0.00      7.05     56.86       -0.13
  sub69             GreenRoof            49.74      0.00      0.00      0.00      0.00      7.05     56.86       -0.13
  sub70             GreenRoof            49.74      0.00      0.00      0.00      0.00      7.05     56.86       -0.13
  sub71             GreenRoof            49.74      0.00      0.00      0.00      0.00      7.05     56.86       -0.13
  sub72             GreenRoof            49.74      0.00      0.00      0.00      0.00      7.05     56.86       -0.13
  
  ******************
  Node Depth Summary
  ******************
  
  ---------------------------------------------------------------------------------
                                 Average  Maximum  Maximum  Time of Max    Reported
                                   Depth    Depth      HGL   Occurrence   Max Depth
  Node                 Type       Meters   Meters   Meters  days hr:min      Meters
  ---------------------------------------------------------------------------------
  WS02003060           JUNCTION     0.19     0.38     5.31     0  02:37        0.38
  WS02003066           JUNCTION     0.16     0.30     5.85     0  02:37        0.30
  WS02003067           JUNCTION     0.45     0.70     6.02     0  02:36        0.70
  WS02003069           JUNCTION     0.21     0.43     5.01     0  02:37        0.43
  WS02003072           JUNCTION     0.27     0.50     4.87     0  02:38        0.50
  WS02003073           JUNCTION     0.15     0.30     4.36     0  02:38        0.30
  WS02004401           JUNCTION     0.54     0.85     6.85     0  02:05        0.85
  WS02004402           JUNCTION     0.57     0.88     6.84     0  02:04        0.88
  WS02004403           JUNCTION     0.60     0.89     6.82     0  02:06        0.89
  WS02004404           JUNCTION     0.68     0.96     6.81     0  02:06        0.96
  WS02004405           JUNCTION     0.67     0.96     6.81     0  02:05        0.96
  WS02004406           JUNCTION     0.69     0.96     6.79     0  02:06        0.96
  WS02004407           JUNCTION     0.15     0.30     6.61     0  02:05        0.30
  WS02004409           JUNCTION     0.32     0.67     6.44     0  02:35        0.67
  WS02004410           JUNCTION     0.35     0.68     6.40     0  02:36        0.68
  WS02004411           JUNCTION     0.38     0.69     6.37     0  02:36        0.69
  WS02004412           JUNCTION     0.40     0.70     6.34     0  02:36        0.70
  WS02004413           JUNCTION     0.56     0.86     6.33     0  02:36        0.86
  WS02006109           JUNCTION     0.58     1.10     7.72     0  02:35        1.06
  WS02006110           JUNCTION     0.59     1.06     7.65     0  02:35        0.99
  WS02006111           JUNCTION     0.15     0.90     7.60     0  00:00        0.40
  WS02006112           JUNCTION     0.68     2.68     8.56     0  00:00        1.14
  WS02006113           JUNCTION     0.22     1.40     8.29     0  00:00        0.46
  WS02006115           JUNCTION     0.41     1.65     7.79     0  00:00        0.86
  WS02006116           JUNCTION     0.50     1.06     7.10     0  00:00        0.83
  WS02006228           JUNCTION     0.56     1.10     7.75     0  02:35        1.10
  WS02006229           JUNCTION     0.53     1.13     7.82     0  02:35        1.09
  WS02006230           JUNCTION     0.52     1.29     8.03     0  02:35        1.19
  WS02006231           JUNCTION     0.34     1.15     8.27     0  01:50        0.94
  WS02006232           JUNCTION     0.46     1.30     8.33     0  01:50        1.14
  WS02006234           JUNCTION     0.38     1.96     9.12     0  03:05        1.16
  WS02006235           JUNCTION     0.42     1.47     8.64     0  02:12        1.25
  WS02006238           JUNCTION     0.44     1.52     8.66     0  02:12        1.28
  WS02006239           JUNCTION     0.40     1.45     8.66     0  02:12        1.27
  WS02006240           JUNCTION     0.37     1.43     8.72     0  03:05        1.24
  WS02006242           JUNCTION     0.42     1.55     8.82     0  02:13        1.55
  WS02006243           JUNCTION     0.35     1.48     8.90     0  02:13        1.48
  WS02006245           JUNCTION     0.35     1.56     9.05     0  02:13        1.56
  WS02006247           JUNCTION     0.37     1.47     8.97     0  02:13        1.47
  WS02006248           JUNCTION     0.34     1.10     8.69     0  01:50        1.10
  WS02006249           JUNCTION     0.38     1.09     8.69     0  01:48        1.09
  WS02006251           JUNCTION     0.38     1.39     9.06     0  01:48        1.13
  WS02006252           JUNCTION     0.27     1.50     9.74     0  00:10        0.69
  WS02006256           JUNCTION     1.00     2.35     9.28     0  00:05        2.35
  WSF200               JUNCTION     0.13     0.29     5.52     0  02:37        0.29
  YS02001580           JUNCTION     0.09     1.05     9.59     0  01:37        0.77
  YS02001583           JUNCTION     0.12     1.14     9.64     0  01:37        0.81
  YS02001586           JUNCTION     0.20     1.13     9.30     0  01:36        1.13
  YS02001590           JUNCTION     0.29     1.40     9.26     0  01:36        1.37
  YS02001593           JUNCTION     0.23     1.46     9.32     0  01:36        1.28
  YS02001596           JUNCTION     0.31     1.80     9.22     0  01:36        1.65
  YS02001600           JUNCTION     0.38     1.87     9.00     0  01:36        1.86
  YS02001601           JUNCTION     0.55     2.06     8.90     0  01:36        2.06
  YS02001602           JUNCTION     0.47     1.87     8.77     0  01:37        1.87
  YS02001605           JUNCTION     0.43     1.78     8.68     0  01:37        1.77
  YS02001607           JUNCTION     0.42     1.67     8.52     0  01:37        1.65
  YS02001610           JUNCTION     0.46     1.68     8.48     0  01:37        1.68
  YS02001613           JUNCTION     0.42     1.70     8.54     0  01:37        1.65
  YS02001616           JUNCTION     0.36     1.61     8.52     0  01:37        1.61
  YS02001619           JUNCTION     0.33     1.61     8.54     0  01:37        1.60
  YS02001622           JUNCTION     0.32     1.58     8.49     0  01:37        1.57
  YS02001625           JUNCTION     0.56     1.78     8.38     0  01:37        1.78
  YS02001629           JUNCTION     0.44     1.85     8.40     0  01:37        1.85
  YS02001633           JUNCTION     0.51     2.01     8.47     0  01:41        1.96
  YS02001641           JUNCTION     0.48     1.90     8.33     0  01:41        1.70
  YS02001644           JUNCTION     0.47     1.89     8.33     0  01:41        1.65
  YS02001647           JUNCTION     0.26     1.63     8.24     0  01:41        1.35
  YS02001649           JUNCTION     0.29     1.87     8.26     0  01:40        1.45
  YS02001652           JUNCTION     0.19     2.16     8.76     0  01:40        1.26
  YS02001655           JUNCTION     0.13     2.00     8.85     0  01:41        1.03
  YS02001658           JUNCTION     0.09     0.78     7.92     0  01:43        0.78
  YS02001661           JUNCTION     0.12     0.47     7.87     0  01:43        0.37
  YS02001664           JUNCTION     0.05     0.25     8.18     0  01:40        0.25
  YS02001745           JUNCTION     0.05     0.22     7.74     0  01:39        0.22
  YS02001748           JUNCTION     0.07     0.67     7.75     0  01:42        0.63
  YS02001751           JUNCTION     0.10     0.87     7.75     0  01:42        0.81
  YS02001754           JUNCTION     0.15     1.68     8.29     0  01:41        1.06
  YS02001757           JUNCTION     0.29     1.67     7.93     0  01:41        1.41
  YS02001759           JUNCTION     0.24     1.82     8.18     0  01:40        1.35
  YS02001762           JUNCTION     0.23     2.08     8.48     0  01:40        1.33
  YS02001765           JUNCTION     0.21     2.07     8.52     0  01:40        1.30
  YS02001767           JUNCTION     0.21     1.99     8.47     0  01:40        1.28
  YS02001770           JUNCTION     0.22     1.95     8.45     0  01:40        1.30
  YS02001774           JUNCTION     0.28     2.05     8.47     0  01:40        1.38
  YS02001779           JUNCTION     0.13     1.68     8.37     0  01:40        1.12
  YS02001783           JUNCTION     0.24     1.24     7.38     0  01:40        1.20
  YS02001784           JUNCTION     0.26     1.13     7.19     0  01:40        1.09
  YS02001786           JUNCTION     0.22     0.89     6.92     0  01:40        0.86
  YS02001788           JUNCTION     0.16     0.62     6.59     0  01:44        0.61
  YS02001790           JUNCTION     0.18     0.71     6.36     0  01:44        0.71
  YS02001791           JUNCTION     0.12     0.43     5.90     0  01:44        0.43
  YS02001793           JUNCTION     0.06     0.27     5.10     0  01:41        0.26
  YS02001882           JUNCTION     0.30     1.81     8.53     0  01:38        1.59
  YS02001884           JUNCTION     0.38     1.73     8.35     0  01:40        1.68
  YS02001887           JUNCTION     0.46     1.80     8.34     0  01:40        1.74
  YS02001890           JUNCTION     0.49     1.81     8.32     0  01:40        1.77
  YS02001895           JUNCTION     0.28     1.56     8.31     0  01:40        1.52
  YS02001898           JUNCTION     0.28     1.57     8.30     0  01:40        1.53
  YS02001901           JUNCTION     0.39     1.68     8.29     0  01:40        1.65
  YS02001904           JUNCTION     0.37     1.64     8.27     0  01:40        1.63
  YS02001907           JUNCTION     0.66     1.96     8.25     0  01:40        1.96
  YS02001910           JUNCTION     0.48     2.01     8.51     0  01:40        1.93
  YS02001915           JUNCTION     0.30     1.96     8.68     0  01:40        1.87
  YS02001918           JUNCTION     0.17     1.81     8.88     0  01:40        1.78
  YS02001920           JUNCTION     0.24     2.13     9.13     0  01:40        1.81
  YS02001923           JUNCTION     0.12     2.03     9.29     0  01:40        1.54
  YS02001926           JUNCTION     0.15     1.90     9.35     0  01:40        1.35
  YS02001929           JUNCTION     0.08     1.78     9.47     0  01:40        1.10
  YS02006553           JUNCTION     0.66     1.96     8.25     0  01:40        1.95
  YS02006556           JUNCTION     0.64     1.92     8.23     0  01:40        1.90
  YS02006558           JUNCTION     0.68     1.97     8.23     0  01:40        1.94
  YS02006561           JUNCTION     0.15     0.91     7.57     0  01:40        0.86
  YS02163301           JUNCTION     0.46     1.93     8.44     0  01:41        1.90
  YS02163601           JUNCTION     0.54     2.02     8.42     0  01:41        1.90
  YS02164001           JUNCTION     0.47     1.93     8.39     0  01:41        1.74
  CC-1                 OUTFALL      0.00     0.00     0.00     0  00:00        0.00
  CC-2                 OUTFALL      0.00     0.00     0.00     0  00:00        0.00
  JK-1                 OUTFALL      0.00     0.00     0.00     0  00:00        0.00
  JK-2                 OUTFALL      0.00     0.00     0.00     0  00:00        0.00
  WSC                  OUTFALL      0.15     0.30     0.97     0  02:39        0.30
  CC-storage           STORAGE      0.70     1.24     6.74     0  02:15        1.24
  JK-storage           STORAGE      1.51     4.23     5.03     0  01:50        4.18
  
  
  *******************
  Node Inflow Summary
  *******************
  
  -------------------------------------------------------------------------------------------------
                                  Maximum  Maximum                  Lateral       Total        Flow
                                  Lateral    Total  Time of Max      Inflow      Inflow     Balance
                                   Inflow   Inflow   Occurrence      Volume      Volume       Error
  Node                 Type           LPS      LPS  days hr:min    10^6 ltr    10^6 ltr     Percent
  -------------------------------------------------------------------------------------------------
  WS02003060           JUNCTION     16.53   552.27     0  02:37       0.476        4.09       0.058
  WS02003066           JUNCTION      0.00   535.74     0  02:37           0        3.61       0.041
  WS02003067           JUNCTION      0.00   535.74     0  02:36           0        3.62       0.117
  WS02003069           JUNCTION      0.32   552.60     0  02:37     0.00922        4.09       0.097
  WS02003072           JUNCTION      0.00   552.52     0  02:38           0        4.09       0.175
  WS02003073           JUNCTION      1.82   554.24     0  02:38      0.0524        4.14       0.138
  WS02004401           JUNCTION      0.00  1677.78     0  00:00           0        3.73       0.310
  WS02004402           JUNCTION      0.00  1171.33     0  00:01           0        3.71       0.303
  WS02004403           JUNCTION      0.00   884.75     0  00:01           0         3.7       0.295
  WS02004404           JUNCTION      0.16   832.59     0  00:01     0.00467         3.7       0.262
  WS02004405           JUNCTION      0.04   776.49     0  00:01      0.0011        3.69       0.325
  WS02004406           JUNCTION      0.00   711.76     0  00:02           0        3.67       0.596
  WS02004407           JUNCTION      0.00   536.58     0  02:06           0        3.65       0.030
  WS02004409           JUNCTION      0.00   536.43     0  02:05           0        3.65       0.075
  WS02004410           JUNCTION      0.00   535.95     0  02:35           0        3.65       0.125
  WS02004411           JUNCTION      0.00   535.95     0  02:36           0        3.64       0.161
  WS02004412           JUNCTION      0.00   535.83     0  02:36           0        3.64       0.208
  WS02004413           JUNCTION      0.00   535.81     0  02:36           0        3.63       0.375
  WS02006109           JUNCTION      1.23  1308.01     0  00:00      0.0354        3.66       0.200
  WS02006110           JUNCTION      0.00   554.12     0  02:35           0        3.63      -0.981
  WS02006111           JUNCTION      0.00  1176.04     0  00:00           0        3.66      -1.059
  WS02006112           JUNCTION      0.00  2307.30     0  00:00           0         3.7      -0.011
  WS02006113           JUNCTION      0.00   564.72     0  02:36           0        3.62      -1.344
  WS02006115           JUNCTION      0.00   899.27     0  00:00           0        3.67      -0.874
  WS02006116           JUNCTION      0.00  1098.16     0  00:01           0         3.7      -0.658
  WS02006228           JUNCTION      0.00   550.00     0  02:35           0         3.6       0.104
  WS02006229           JUNCTION      0.00   550.62     0  02:35           0        3.59       0.249
  WS02006230           JUNCTION     10.28   594.49     0  02:35       0.296        3.57       0.042
  WS02006231           JUNCTION      0.00   585.93     0  03:05           0        3.27       0.016
  WS02006232           JUNCTION      0.00   583.25     0  03:05           0        3.27       0.219
  WS02006234           JUNCTION      0.00   570.76     0  03:05           0        3.26      -0.405
  WS02006235           JUNCTION      0.00   560.82     0  02:35           0        3.41       0.380
  WS02006238           JUNCTION      0.00   426.30     0  02:05           0        2.53      -0.023
  WS02006239           JUNCTION      0.00   424.78     0  02:05           0        2.43      -0.062
  WS02006240           JUNCTION      0.00   421.62     0  02:05           0        2.37       0.014
  WS02006242           JUNCTION      0.00   420.92     0  02:05           0        2.35       0.052
  WS02006243           JUNCTION      0.00   420.95     0  02:05           0        2.33      -0.592
  WS02006245           JUNCTION      0.00   421.38     0  02:05           0        2.34       0.559
  WS02006247           JUNCTION      0.00   422.16     0  02:05           0        2.34       0.016
  WS02006248           JUNCTION      0.00   422.94     0  02:05           0        2.34      -0.112
  WS02006249           JUNCTION      0.00   458.88     0  03:50           0        2.51       0.769
  WS02006251           JUNCTION      0.08   406.99     0  01:48     0.00222        2.51      -0.023
  WS02006252           JUNCTION      0.00   400.00     0  00:10           0         2.5      -0.522
  WS02006256           JUNCTION      0.00   300.00     0  00:05           0        1.27      -2.992
  WSF200               JUNCTION      0.00   535.74     0  02:37           0        3.61       0.012
  YS02001580           JUNCTION      0.00   229.73     0  01:37           0      0.0044      -7.280
  YS02001583           JUNCTION      0.00   262.98     0  01:37           0      0.0143     -13.287
  YS02001586           JUNCTION    373.93   373.97     0  01:43        1.04        1.05       0.169
  YS02001590           JUNCTION      0.00   318.10     0  01:48           0        1.01      -0.050
  YS02001593           JUNCTION      0.00   318.33     0  01:48           0        1.01       0.006
  YS02001596           JUNCTION      0.00   317.93     0  01:48           0        1.01      -0.015
  YS02001600           JUNCTION      0.00   318.01     0  01:48           0        1.01      -0.006
  YS02001601           JUNCTION    678.44   995.96     0  01:41         1.4        2.41       0.033
  YS02001602           JUNCTION      0.00   587.07     0  01:37           0        1.88       0.013
  YS02001605           JUNCTION      0.00   587.54     0  01:37           0        1.83       0.002
  YS02001607           JUNCTION      0.00   587.05     0  01:37           0        1.83       0.087
  YS02001610           JUNCTION      0.00   562.91     0  01:37           0        1.83       0.111
  YS02001613           JUNCTION      0.00   531.39     0  01:37           0        1.75       0.078
  YS02001616           JUNCTION      0.00   506.02     0  02:01           0        1.75       0.002
  YS02001619           JUNCTION    637.75   919.12     0  01:39         1.6        3.34      -0.019
  YS02001622           JUNCTION      0.00   917.40     0  01:39           0        3.34      -0.002
  YS02001625           JUNCTION      0.00   916.88     0  01:39           0        3.34       0.261
  YS02001629           JUNCTION      0.00   916.52     0  01:39           0        3.26      -0.006
  YS02001633           JUNCTION    515.40  1414.50     0  01:39        1.06        4.31       0.073
  YS02001641           JUNCTION      0.00  1418.41     0  01:39           0        4.31       0.059
  YS02001644           JUNCTION    442.21  1853.79     0  01:39       0.866        5.17       0.058
  YS02001647           JUNCTION      0.00  1854.80     0  01:39           0        5.16       0.004
  YS02001649           JUNCTION      0.00  2196.25     0  01:39           0        5.99       0.001
  YS02001652           JUNCTION      0.00   486.57     0  01:40           0       0.823      -0.235
  YS02001655           JUNCTION      0.15   525.74     0  01:43     0.00443       0.825       0.142
  YS02001658           JUNCTION      0.00   551.74     0  01:43           0        0.82       0.006
  YS02001661           JUNCTION      0.00   437.91     0  01:40           0       0.821       0.037
  YS02001664           JUNCTION    437.93   437.93     0  01:40       0.821       0.821      -0.007
  YS02001745           JUNCTION    282.47   282.47     0  01:39       0.474       0.474       0.190
  YS02001748           JUNCTION      0.04   282.29     0  01:39      0.0013       0.475      -0.197
  YS02001751           JUNCTION      0.01   406.98     0  01:42    0.000317       0.477       0.264
  YS02001754           JUNCTION      0.26   335.10     0  01:42     0.00749       0.484      -0.364
  YS02001757           JUNCTION      0.00  3021.76     0  01:42           0         8.2       0.070
  YS02001759           JUNCTION    405.75   975.35     0  01:40       0.692        1.73      -0.016
  YS02001762           JUNCTION      0.00   585.72     0  01:40           0        1.04       0.017
  YS02001765           JUNCTION      0.00   585.53     0  01:40           0        1.04       0.016
  YS02001767           JUNCTION      0.54   585.10     0  01:40      0.0154        1.04       0.009
  YS02001770           JUNCTION    558.79   587.38     0  01:40        1.02        1.07      -0.015
  YS02001774           JUNCTION      0.00   295.69     0  01:40           0      0.0638       1.720
  YS02001779           JUNCTION      0.01   299.29     0  01:40    0.000144      0.0203      -1.574
  YS02001783           JUNCTION      0.00  1145.53     0  01:41           0        2.99       0.004
  YS02001784           JUNCTION      1.06  1146.58     0  01:41      0.0305        3.02       0.016
  YS02001786           JUNCTION      0.06  1146.52     0  01:41     0.00162        3.03       0.020
  YS02001788           JUNCTION      0.07  1148.29     0  01:41     0.00204        3.03       0.010
  YS02001790           JUNCTION      0.15  1156.91     0  01:42     0.00446        3.03       0.033
  YS02001791           JUNCTION      0.00  1269.71     0  01:44           0        3.03      -0.021
  YS02001793           JUNCTION      0.00  1214.83     0  01:45           0        3.03       0.010
  YS02001882           JUNCTION      0.00    74.61     0  01:38           0      0.0125       4.879
  YS02001884           JUNCTION      0.00   124.46     0  01:38           0      0.0485       5.269
  YS02001887           JUNCTION    446.09   462.40     0  01:39       0.722       0.756       0.575
  YS02001890           JUNCTION      0.00   465.42     0  01:39           0       0.715       0.694
  YS02001895           JUNCTION      0.00   472.56     0  01:39           0        0.71       0.196
  YS02001898           JUNCTION      0.00   479.37     0  01:39           0       0.709       0.018
  YS02001901           JUNCTION      0.00   503.51     0  01:39           0       0.711       0.464
  YS02001904           JUNCTION      0.00   504.88     0  01:39           0       0.719       0.389
  YS02001907           JUNCTION      0.00  1280.05     0  01:41           0        2.18       0.798
  YS02001910           JUNCTION      0.00   891.64     0  01:41           0        1.46       0.489
  YS02001915           JUNCTION    454.32   891.50     0  01:41       0.883        1.51       0.091
  YS02001918           JUNCTION      0.00   443.46     0  01:41           0       0.649       0.015
  YS02001920           JUNCTION      2.87   443.22     0  01:41      0.0827       0.627       0.142
  YS02001923           JUNCTION      0.04   410.24     0  01:40     0.00109        0.53      -0.131
  YS02001926           JUNCTION      0.05   734.95     0  01:40      0.0015       0.513      -0.002
  YS02001929           JUNCTION    229.54   440.57     0  01:40       0.497         0.5      -0.033
  YS02006553           JUNCTION      0.00   787.01     0  01:49           0        2.05       0.572
  YS02006556           JUNCTION      0.00   786.94     0  01:49           0        2.06       0.387
  YS02006558           JUNCTION    553.48  1146.03     0  01:41       0.999        3.03       0.113
  YS02006561           JUNCTION      0.00  1145.85     0  01:41           0        2.99      -0.001
  YS02163301           JUNCTION      0.00   915.62     0  01:39           0        3.26       0.039
  YS02163601           JUNCTION      0.11  1415.45     0  01:39     0.00317        4.31       0.107
  YS02164001           JUNCTION      0.00  1416.34     0  01:39           0        4.31       0.046
  CC-1                 OUTFALL       0.00   683.00     0  00:05           0        3.72       0.000
  CC-2                 OUTFALL       0.00   683.00     0  00:15           0        2.85       0.000
  JK-1                 OUTFALL       0.00  1000.00     0  01:35           0        1.27       0.000
  JK-2                 OUTFALL       0.00  1000.00     0  01:45           0       0.619       0.000
  WSC                  OUTFALL       0.00   554.15     0  02:39           0        4.13       0.000
  CC-storage           STORAGE       0.00  3021.74     0  01:42           0        10.4      -0.273
  JK-storage           STORAGE       0.00  1269.56     0  01:45           0        3.18      -0.546
  
  
  **********************
  Node Surcharge Summary
  **********************
  
  Surcharging occurs when water rises above the top of the highest conduit.
  ---------------------------------------------------------------------
                                               Max. Height   Min. Depth
                                   Hours       Above Crown    Below Rim
  Node                 Type      Surcharged         Meters       Meters
  ---------------------------------------------------------------------
  WS02006109           JUNCTION        1.36          0.278        1.542
  WS02006110           JUNCTION        0.53          0.152        1.698
  WS02006111           JUNCTION        0.01          0.087        1.783
  WS02006112           JUNCTION        0.49          1.680        0.000
  WS02006113           JUNCTION        0.01          0.600        1.330
  WS02006115           JUNCTION        0.01          0.642        1.608
  WS02006116           JUNCTION        0.01          0.000        2.290
  WS02006228           JUNCTION        1.34          0.274        1.926
  WS02006229           JUNCTION        1.38          0.330        2.120
  WS02006230           JUNCTION        0.53          0.209        1.361
  WS02006231           JUNCTION        0.63          0.436        1.094
  WS02006232           JUNCTION        1.44          0.596        0.884
  WS02006234           JUNCTION        0.94          1.240        0.000
  WS02006235           JUNCTION        1.35          0.763        0.527
  WS02006238           JUNCTION        1.39          0.797        0.633
  WS02006239           JUNCTION        1.34          0.713        0.577
  WS02006240           JUNCTION        1.35          0.717        0.673
  WS02006242           JUNCTION        1.42          0.820        0.000
  WS02006243           JUNCTION        1.34          0.770        0.000
  WS02006245           JUNCTION        1.34          0.850        0.000
  WS02006247           JUNCTION        1.35          0.760        0.000
  WS02006248           JUNCTION        1.32          0.380        0.000
  WS02006249           JUNCTION        1.34          0.390        0.000
  WS02006251           JUNCTION        0.67          0.356        0.824
  WS02006252           JUNCTION        1.56          1.100        0.000
  WS02006256           JUNCTION        6.85          2.050        0.000
  YS02001580           JUNCTION        0.35          0.450        0.000
  YS02001583           JUNCTION        0.36          0.500        0.000
  YS02001586           JUNCTION        0.48          0.510        0.000
  YS02001590           JUNCTION        0.55          0.750        0.000
  YS02001593           JUNCTION        0.55          0.840        0.000
  YS02001596           JUNCTION        0.64          1.070        0.000
  YS02001600           JUNCTION        0.78          1.190        0.000
  YS02001601           JUNCTION        1.17          1.440        0.000
  YS02001602           JUNCTION        1.02          1.270        0.000
  YS02001605           JUNCTION        0.97          1.180        0.000
  YS02001607           JUNCTION        0.48          0.671        0.009
  YS02001610           JUNCTION        0.51          0.680        0.000
  YS02001613           JUNCTION        0.47          0.700        0.000
  YS02001616           JUNCTION        0.44          0.610        0.000
  YS02001619           JUNCTION        0.42          0.610        0.000
  YS02001622           JUNCTION        0.42          0.583        0.037
  YS02001625           JUNCTION        0.60          0.780        0.000
  YS02001629           JUNCTION        0.34          0.470        0.000
  YS02001633           JUNCTION        0.60          0.993        0.067
  YS02001641           JUNCTION        0.50          0.896        0.204
  YS02001644           JUNCTION        0.46          0.894        0.026
  YS02001647           JUNCTION        0.26          0.635        0.265
  YS02001649           JUNCTION        0.32          0.875        0.175
  YS02001652           JUNCTION        0.14          1.130        0.000
  YS02001655           JUNCTION        0.01          1.003        0.197
  YS02001754           JUNCTION        0.02          0.634        0.516
  YS02001757           JUNCTION        0.33          0.674        0.536
  YS02001759           JUNCTION        0.25          0.820        0.390
  YS02001762           JUNCTION        0.23          1.082        0.068
  YS02001765           JUNCTION        0.20          1.069        0.031
  YS02001767           JUNCTION        0.17          0.985        0.045
  YS02001770           JUNCTION        0.14          0.920        0.000
  YS02001774           JUNCTION        0.23          1.049        0.001
  YS02001779           JUNCTION        0.04          0.680        0.000
  YS02001783           JUNCTION        0.33          0.443        1.157
  YS02001784           JUNCTION        0.31          0.327        1.163
  YS02001786           JUNCTION        0.20          0.090        1.340
  YS02001882           JUNCTION        0.28          0.814        0.016
  YS02001884           JUNCTION        0.29          0.670        0.200
  YS02001887           JUNCTION        0.32          0.752        0.198
  YS02001890           JUNCTION        0.34          0.760        0.000
  YS02001895           JUNCTION        0.27          0.562        0.188
  YS02001898           JUNCTION        0.26          0.535        0.205
  YS02001901           JUNCTION        0.31          0.677        0.193
  YS02001904           JUNCTION        0.30          0.638        0.212
  YS02001907           JUNCTION        0.49          0.950        0.000
  YS02001910           JUNCTION        0.36          1.008        0.092
  YS02001915           JUNCTION        0.28          0.958        0.042
  YS02001918           JUNCTION        0.19          0.810        0.000
  YS02001920           JUNCTION        0.21          1.125        0.015
  YS02001923           JUNCTION        0.01          0.820        0.000
  YS02001926           JUNCTION        0.01          0.900        0.000
  YS02001929           JUNCTION        0.01          0.780        0.000
  YS02006553           JUNCTION        0.51          0.965        0.225
  YS02006556           JUNCTION        0.43          0.879        0.471
  YS02006558           JUNCTION        0.42          0.865        0.535
  YS02006561           JUNCTION        0.16          0.106        1.044
  YS02163301           JUNCTION        0.59          0.926        0.104
  YS02163601           JUNCTION        0.63          1.019        0.061
  YS02164001           JUNCTION        0.52          0.934        0.166
  
  
  *********************
  Node Flooding Summary
  *********************
  
  Flooding refers to all water that overflows a node, whether it ponds or not.
  --------------------------------------------------------------------------
                                                             Total   Maximum
                                 Maximum   Time of Max       Flood    Ponded
                        Hours       Rate    Occurrence      Volume     Depth
  Node                 Flooded       LPS   days hr:min    10^6 ltr    Meters
  --------------------------------------------------------------------------
  WS02006112              0.01   1547.89      0  00:00       0.047     0.000
  WS02006234              0.01     48.68      0  03:05       0.000     0.000
  WS02006242              0.01      0.63      0  02:13       0.000     0.000
  WS02006243              0.01      1.92      0  02:13       0.000     0.000
  WS02006245              0.01      2.05      0  02:13       0.000     0.000
  WS02006247              0.01      2.05      0  02:13       0.000     0.000
  WS02006248              0.01      7.03      0  01:50       0.000     0.000
  WS02006249              0.65    100.24      0  01:48       0.155     0.000
  WS02006252              0.01      0.91      0  00:10       0.000     0.000
  WS02006256              1.18    287.69      0  02:12       0.368     0.000
  YS02001580              0.01    170.88      0  01:37       0.001     0.000
  YS02001583              0.01    159.66      0  01:37       0.000     0.000
  YS02001586              0.23    149.47      0  01:37       0.032     0.000
  YS02001590              0.01     68.88      0  01:36       0.000     0.000
  YS02001593              0.01     77.02      0  01:36       0.000     0.000
  YS02001596              0.01     25.26      0  01:36       0.000     0.000
  YS02001600              0.01     25.62      0  01:36       0.000     0.000
  YS02001601              0.41    598.13      0  01:41       0.524     0.000
  YS02001602              0.27     61.93      0  01:49       0.052     0.000
  YS02001605              0.01     11.91      0  01:37       0.000     0.000
  YS02001610              0.22    164.48      0  01:43       0.085     0.000
  YS02001613              0.01     82.98      0  01:37       0.000     0.000
  YS02001616              0.01     58.67      0  01:37       0.000     0.000
  YS02001619              0.01     84.12      0  01:37       0.000     0.000
  YS02001625              0.15    272.78      0  01:43       0.078     0.000
  YS02001629              0.01    226.00      0  01:37       0.001     0.000
  YS02001652              0.01    214.09      0  01:40       0.000     0.000
  YS02001770              0.01     77.32      0  01:40       0.000     0.000
  YS02001779              0.01    252.48      0  01:40       0.001     0.000
  YS02001890              0.01      5.08      0  01:40       0.000     0.000
  YS02001907              0.12    660.95      0  01:41       0.121     0.000
  YS02001918              0.01     86.64      0  01:40       0.000     0.000
  YS02001923              0.01    251.89      0  01:40       0.000     0.000
  YS02001926              0.01    621.69      0  01:40       0.001     0.000
  YS02001929              0.01    258.10      0  01:40       0.000     0.000
  
  
  **********************
  Storage Volume Summary
  **********************
  
  ------------------------------------------------------------------------------------------------
                         Average    Avg   Evap  Exfil     Maximum    Max    Time of Max    Maximum
                          Volume   Pcnt   Pcnt   Pcnt      Volume   Pcnt     Occurrence    Outflow
  Storage Unit           1000 m³   Full   Loss   Loss     1000 m³   Full    days hr:min        LPS
  ------------------------------------------------------------------------------------------------
  CC-storage               1.964   30.6    0.0    0.0       3.447   53.8       0  02:15    1766.00
  JK-storage               0.076   26.0    0.0    0.0       0.212   72.9       0  01:50    2300.00
  
  
  ***********************
  Outfall Loading Summary
  ***********************
  
  -----------------------------------------------------------
                         Flow       Avg       Max       Total
                         Freq      Flow      Flow      Volume
  Outfall Node           Pcnt       LPS       LPS    10^6 ltr
  -----------------------------------------------------------
  CC-1                  40.26    683.00    683.00       3.716
  CC-2                  26.90    683.00    683.00       2.848
  JK-1                  10.17   1000.00   1000.00       1.274
  JK-2                   3.24   1000.00   1000.00       0.619
  WSC                   99.99    184.44    554.15       4.130
  -----------------------------------------------------------
  System                36.11   3550.44   3202.22      12.588
  
  
  ********************
  Link Flow Summary
  ********************
  
  -----------------------------------------------------------------------------
                                 Maximum  Time of Max   Maximum    Max/    Max/
                                  |Flow|   Occurrence   |Veloc|    Full    Full
  Link                 Type          LPS  days hr:min     m/sec    Flow   Depth
  -----------------------------------------------------------------------------
  1                    CONDUIT    554.15     0  02:39      2.83    0.19    0.30
  WS02003060WS02003069 CONDUIT    552.28     0  02:37      1.64    0.22    0.34
  WS02003066WSF200     CONDUIT    535.74     0  02:37      2.85    0.09    0.22
  WS02003067WS02003066 CONDUIT    535.74     0  02:37      1.21    0.17    0.42
  WS02003069WS02003072 CONDUIT    552.52     0  02:38      1.37    0.27    0.39
  WS02003072WS02003073 CONDUIT    552.42     0  02:38      1.43    1.19    0.37
  WS02004401WS02004402 CONDUIT   1171.33     0  00:01      2.51    1.41    0.86
  WS02004402WS02004403 CONDUIT    884.75     0  00:01      2.16    1.27    0.88
  WS02004403WS02004404 CONDUIT    832.43     0  00:01      1.96    0.60    0.93
  WS02004404WS02004405 CONDUIT    776.45     0  00:01      2.26    7.61    0.96
  WS02004405WS02004406 CONDUIT    711.76     0  00:02      2.15    1.40    0.96
  WS02004406WS02004407 CONDUIT    536.58     0  02:06      1.04    0.24    0.63
  WS02004407WS02004409 CONDUIT    536.43     0  02:05      1.95    0.19    0.48
  WS02004409WS02004410 CONDUIT    535.95     0  02:35      1.31    0.69    0.67
  WS02004410WS02004411 CONDUIT    535.95     0  02:36      1.19    0.73    0.69
  WS02004411WS02004412 CONDUIT    535.83     0  02:36      1.09    0.76    0.69
  WS02004412WS02004413 CONDUIT    535.81     0  02:36      1.11    0.36    0.78
  WS02004413WS02003067 CONDUIT    535.74     0  02:36      1.11    0.23    0.59
  WS02006109WS02006110 CONDUIT   1306.78     0  00:00      3.14    2.51    1.00
  WS02006110WS02006113 CONDUIT    564.72     0  02:36      1.36    0.51    1.00
  WS02006111WS02006112 CONDUIT   2307.30     0  00:00      9.18    1.10    0.91
  WS02006112WS02006115 CONDUIT    899.27     0  00:00      1.16    0.53    1.00
  WS02006113WS02006111 CONDUIT   1176.04     0  00:00      2.47    1.41    1.00
  WS02006115WS02006116 CONDUIT   1098.16     0  00:01      1.72    1.41    1.00
  WS02006116WS02004401 CONDUIT   1677.78     0  00:00      2.92    2.31    0.84
  WS02006228WS02006109 CONDUIT    551.56     0  02:35      1.40    2.41    1.00
  WS02006229WS02006228 CONDUIT    550.00     0  02:35      1.24    1.82    1.00
  WS02006230WS02006229 CONDUIT    550.62     0  02:35      1.43   12.25    1.00
  WS02006231WS02006230 CONDUIT    584.21     0  02:35      1.58    8.86    1.00
  WS02006232WS02006231 CONDUIT    585.93     0  03:05      1.53    1.23    1.00
  WS02006234WS02006232 CONDUIT    583.25     0  03:05      1.52    1.18    1.00
  WS02006235WS02006234 CONDUIT    570.76     0  03:05      1.48    6.02    1.00
  WS02006238WS02006235 CONDUIT    425.79     0  02:51      1.52    0.95    1.00
  WS02006239WS02006238 CONDUIT    426.30     0  02:05      1.11    1.36    1.00
  WS02006240WS02006239 CONDUIT    424.78     0  02:05      1.10    1.34    1.00
  WS02006242WS02006240 CONDUIT    421.62     0  02:05      1.10    1.67    1.00
  WS02006243WS02006242 CONDUIT    420.92     0  02:05      1.09    0.90    1.00
  WS02006245WS02006243 CONDUIT    420.95     0  02:05      1.15    1.25    1.00
  WS02006247WS02006245 CONDUIT    421.38     0  02:05      1.21    3.34    1.00
  WS02006248WS02006247 CONDUIT    422.16     0  02:05      1.32    0.92    1.00
  WS02006249WS02006248 CONDUIT    422.94     0  02:05      1.33    2.32    1.00
  WS02006251WS02006249 CONDUIT    458.88     0  03:50      1.78    1.32    1.00
  WS02006252WS02006251 CONDUIT    406.92     0  01:48      5.51    1.49    1.00
  WS02006256WS02006235 CONDUIT    289.26     0  00:05      4.25    3.06    1.00
  WSF200WS02003060     CONDUIT    535.74     0  02:37      2.06    0.12    0.28
  YS02001580YS02001583 CONDUIT    229.73     0  01:37      1.02    0.89    1.00
  YS02001583YS02001586 CONDUIT    219.71     0  01:37      1.02    0.33    1.00
  YS02001586YS02001590 CONDUIT    318.10     0  01:48      1.31    0.56    1.00
  YS02001590YS02001593 CONDUIT    318.33     0  01:48      1.13    2.00    1.00
  YS02001593YS02001596 CONDUIT    317.93     0  01:48      1.73    0.50    1.00
  YS02001596YS02001600 CONDUIT    318.01     0  01:48      1.19    0.62    1.00
  YS02001600YS02001601 CONDUIT    318.03     0  01:48      1.12    0.55    1.00
  YS02001601YS02001602 CONDUIT    587.07     0  01:37      2.08    2.12    1.00
  YS02001602YS02001605 CONDUIT    587.54     0  01:37      2.08   12.43    1.00
  YS02001605YS02001607 CONDUIT    587.05     0  01:37      2.08    3.22    1.00
  YS02001607YS02001610 CONDUIT    562.91     0  01:37      0.75    0.54    1.00
  YS02001610YS02001613 CONDUIT    531.39     0  01:37      0.71    0.61    1.00
  YS02001613YS02001616 CONDUIT    506.02     0  02:01      0.69    0.43    1.00
  YS02001616YS02001619 CONDUIT    507.59     0  02:01      0.67    0.88    1.00
  YS02001619YS02001622 CONDUIT    917.40     0  01:39      1.36    1.35    1.00
  YS02001622YS02001625 CONDUIT    916.88     0  01:39      1.17    0.49    1.00
  YS02001625YS02001629 CONDUIT    916.52     0  01:39      1.17    0.44    1.00
  YS02001629YS02163301 CONDUIT    915.62     0  01:39      1.17    1.13    1.00
  YS02001633YS02163601 CONDUIT   1415.34     0  01:39      1.80    1.49    1.00
  YS02001641YS02001644 CONDUIT   1419.38     0  01:39      1.81    4.59    1.00
  YS02001644YS02001647 CONDUIT   1854.80     0  01:39      2.38    1.09    1.00
  YS02001647YS02001649 CONDUIT   1833.03     0  01:39      2.39    0.97    1.00
  YS02001649YS02001757 CONDUIT   2199.00     0  01:39      2.80    1.33    1.00
  YS02001652YS02001649 CONDUIT    470.98     0  01:44      0.90    0.23    1.00
  YS02001655YS02001652 CONDUIT    486.57     0  01:40      1.62    0.24    1.00
  YS02001658YS02001655 CONDUIT    525.58     0  01:43      2.09    0.22    0.89
  YS02001661YS02001658 CONDUIT    551.74     0  01:43      2.35    0.22    0.54
  YS02001664YS02001661 CONDUIT    437.91     0  01:40      2.20    0.14    0.35
  YS02001745YS02001748 CONDUIT    282.24     0  01:39      2.17    0.11    0.40
  YS02001748YS02001751 CONDUIT    406.97     0  01:42      1.82    0.21    0.72
  YS02001751YS02001754 CONDUIT    334.84     0  01:42      1.66    0.16    0.93
  YS02001754YS02001757 CONDUIT    325.60     0  01:43      0.63    0.13    1.00
  YS02001757CaochengTiaoxuchi CONDUIT   3021.74     0  01:42      4.03    1.31    1.00
  YS02001759YS02001757 CONDUIT    975.13     0  01:40      1.24    0.69    1.00
  YS02001762YS02001759 CONDUIT    586.79     0  01:40      0.75    0.68    1.00
  YS02001765YS02001762 CONDUIT    585.72     0  01:40      0.75    0.55    1.00
  YS02001767YS02001765 CONDUIT    585.53     0  01:40      0.88    0.74    1.00
  YS02001770YS02001767 CONDUIT    584.56     0  01:40      0.94    2.32    1.00
  YS02001774YS02001770 CONDUIT    295.69     0  01:40      0.38    0.19    1.00
  YS02001779YS02001774 CONDUIT    299.29     0  01:40      0.39    0.15    1.00
  YS02001783YS02001784 CONDUIT   1145.52     0  01:41      2.28    1.58    1.00
  YS02001784YS02001785 CONDUIT   1146.46     0  01:41      2.28    2.67    1.00
  YS02001786YS02001788 CONDUIT   1148.22     0  01:41      2.46    2.21    0.88
  YS02001788YS02001790 CONDUIT   1156.76     0  01:42      2.69    0.85    0.83
  YS02001790YS02001791 CONDUIT   1269.71     0  01:44      3.41    1.38    0.70
  YS02001791YS02001793 CONDUIT   1214.83     0  01:45      6.69    0.52    0.42
  YS02001793JiankangQianchi CONDUIT   1269.56     0  01:45      2.55    0.10    0.63
  YS02001882YS02001884 CONDUIT     74.61     0  01:38      0.15    0.09    1.00
  YS02001884YS02001887 CONDUIT    124.46     0  01:38      0.16    0.17    1.00
  YS02001887YS02001890 CONDUIT    465.42     0  01:39      0.59    0.80    1.00
  YS02001890YS02001895 CONDUIT    472.56     0  01:39      0.60    0.22    1.00
  YS02001895YS02001898 CONDUIT    479.37     0  01:39      0.61    0.83    1.00
  YS02001898YS02001901 CONDUIT    503.51     0  01:39      0.64    0.32    1.00
  YS02001901YS02001904 CONDUIT    504.88     0  01:39      0.64    0.78    1.00
  YS02001904YS02001907 CONDUIT    515.51     0  01:39      0.66    0.18    1.00
  YS02001907YS02006553 CONDUIT    787.01     0  01:49      0.87    0.93    1.00
  YS02001910YS02001907 CONDUIT    891.63     0  01:41      1.14    0.50    1.00
  YS02001915YS02001910 CONDUIT    891.64     0  01:41      1.14    0.44    1.00
  YS02001918YS02001915 CONDUIT    443.34     0  01:41      0.60    0.24    1.00
  YS02001920YS02001918 CONDUIT    443.46     0  01:41      0.69    0.43    1.00
  YS02001923YS02001920 CONDUIT    440.35     0  01:41      0.85    0.20    1.00
  YS02001926YS02001923 CONDUIT    383.87     0  01:41      1.00    0.55    1.00
  YS02001929YS02001926 CONDUIT    422.53     0  01:40      1.14    0.20    1.00
  YS02006553YS02006556 CONDUIT    786.94     0  01:49      1.00    0.67    1.00
  YS02006556YS02006558 CONDUIT    787.93     0  01:49      1.00    0.62    1.00
  YS02006558YS02006561 CONDUIT   1145.85     0  01:41      4.05    2.53    1.00
  YS02006561YS02001783 CONDUIT   1145.53     0  01:41      2.28    0.59    1.00
  YS02163301YS02001633 CONDUIT    916.12     0  01:39      1.17    0.86    1.00
  YS02163601YS02164001 CONDUIT   1416.34     0  01:39      1.80    1.25    1.00
  YS02164001YS02001641 CONDUIT   1418.41     0  01:39      1.81    1.94    1.00
  CC-R1                PUMP       683.00     0  00:05              1.00
  CC-R2                PUMP       683.00     0  00:15              1.00
  CC-S1                PUMP       200.00     0  00:10              1.00
  CC-S2                PUMP       200.00     0  00:05              1.00
  JK-R1                PUMP      1000.00     0  01:35              1.00
  JK-R2                PUMP      1000.00     0  01:45              1.00
  JK-S                 PUMP       300.00     0  00:05              1.00
  
  
  ***************************
  Flow Classification Summary
  ***************************
  
  -------------------------------------------------------------------------------------
                      Adjusted    ---------- Fraction of Time in Flow Class ---------- 
                       /Actual         Up    Down  Sub   Sup   Up    Down  Norm  Inlet 
  Conduit               Length    Dry  Dry   Dry   Crit  Crit  Crit  Crit  Ltd   Ctrl  
  -------------------------------------------------------------------------------------
  1                       1.00   0.00  0.00  0.00  0.00  1.00  0.00  0.00  0.32  0.00
  WS02003060WS02003069    1.00   0.00  0.00  0.00  0.96  0.04  0.00  0.00  0.79  0.00
  WS02003066WSF200        1.00   0.03  0.00  0.00  0.00  0.97  0.00  0.00  0.88  0.00
  WS02003067WS02003066    1.00   0.02  0.01  0.00  0.97  0.00  0.00  0.00  0.00  0.00
  WS02003069WS02003072    1.00   0.00  0.00  0.00  0.99  0.01  0.00  0.00  0.80  0.00
  WS02003072WS02003073    1.00   0.00  0.00  0.00  0.00  0.00  0.00  1.00  0.00  0.00
  WS02004401WS02004402    1.00   0.00  0.00  0.00  1.00  0.00  0.00  0.00  0.00  0.00
  WS02004402WS02004403    1.00   0.00  0.00  0.00  1.00  0.00  0.00  0.00  0.00  0.00
  WS02004403WS02004404    1.00   0.00  0.00  0.00  1.00  0.00  0.00  0.00  0.00  0.00
  WS02004404WS02004405    1.00   0.00  0.00  0.00  1.00  0.00  0.00  0.00  0.01  0.00
  WS02004405WS02004406    1.00   0.00  0.00  0.00  1.00  0.00  0.00  0.00  0.00  0.00
  WS02004406WS02004407    1.00   0.00  0.00  0.00  1.00  0.00  0.00  0.00  0.00  0.00
  WS02004407WS02004409    1.00   0.00  0.00  0.00  0.99  0.01  0.00  0.00  0.99  0.00
  WS02004409WS02004410    1.00   0.00  0.00  0.00  0.99  0.00  0.00  0.00  0.00  0.00
  WS02004410WS02004411    1.00   0.01  0.00  0.00  0.99  0.00  0.00  0.00  0.00  0.00
  WS02004411WS02004412    1.00   0.01  0.00  0.00  0.99  0.00  0.00  0.00  0.00  0.00
  WS02004412WS02004413    1.00   0.01  0.00  0.00  0.99  0.00  0.00  0.00  0.00  0.00
  WS02004413WS02003067    1.00   0.01  0.01  0.00  0.00  0.00  0.98  0.00  0.00  0.00
  WS02006109WS02006110    1.00   0.00  0.00  0.00  1.00  0.00  0.00  0.00  0.00  0.00
  WS02006110WS02006113    1.00   0.00  0.00  0.00  1.00  0.00  0.00  0.00  0.00  0.00
  WS02006111WS02006112    1.00   0.00  0.00  0.00  1.00  0.00  0.00  0.00  1.00  0.00
  WS02006112WS02006115    1.00   0.00  0.00  0.00  1.00  0.00  0.00  0.00  0.00  0.00
  WS02006113WS02006111    1.00   0.00  0.00  0.00  0.01  0.99  0.00  0.00  0.11  0.00
  WS02006115WS02006116    1.00   0.00  0.00  0.00  1.00  0.00  0.00  0.00  0.00  0.00
  WS02006116WS02004401    1.00   0.00  0.00  0.00  1.00  0.00  0.00  0.00  0.00  0.00
  WS02006228WS02006109    1.00   0.00  0.00  0.00  1.00  0.00  0.00  0.00  0.00  0.00
  WS02006229WS02006228    1.00   0.00  0.00  0.00  1.00  0.00  0.00  0.00  0.00  0.00
  WS02006230WS02006229    1.00   0.00  0.00  0.00  1.00  0.00  0.00  0.00  0.04  0.00
  WS02006231WS02006230    1.00   0.00  0.00  0.00  0.19  0.00  0.81  0.00  0.00  0.00
  WS02006232WS02006231    1.00   0.00  0.00  0.00  0.99  0.00  0.01  0.00  0.00  0.00
  WS02006234WS02006232    1.00   0.00  0.00  0.00  0.99  0.00  0.00  0.00  0.05  0.00
  WS02006235WS02006234    1.00   0.01  0.00  0.00  0.86  0.00  0.13  0.00  0.00  0.00
  WS02006238WS02006235    1.00   0.01  0.00  0.00  0.99  0.00  0.00  0.00  0.01  0.00
  WS02006239WS02006238    1.00   0.01  0.00  0.00  0.99  0.00  0.00  0.00  0.18  0.00
  WS02006240WS02006239    1.00   0.01  0.00  0.00  0.64  0.00  0.00  0.35  0.07  0.00
  WS02006242WS02006240    1.00   0.01  0.00  0.00  0.98  0.00  0.00  0.00  0.00  0.00
  WS02006243WS02006242    1.00   0.01  0.00  0.00  0.98  0.00  0.00  0.00  0.68  0.00
  WS02006245WS02006243    1.00   0.01  0.00  0.00  0.73  0.00  0.00  0.26  0.01  0.00
  WS02006247WS02006245    1.00   0.01  0.00  0.00  0.94  0.00  0.00  0.04  0.00  0.00
  WS02006248WS02006247    1.00   0.01  0.00  0.00  0.97  0.00  0.00  0.02  0.58  0.00
  WS02006249WS02006248    1.00   0.00  0.01  0.00  0.35  0.00  0.64  0.00  0.00  0.00
  WS02006251WS02006249    1.00   0.00  0.00  0.00  0.99  0.01  0.00  0.00  0.65  0.00
  WS02006252WS02006251    1.00   0.01  0.53  0.00  0.08  0.00  0.38  0.00  0.09  0.00
  WS02006256WS02006235    1.00   0.01  0.00  0.00  0.96  0.02  0.00  0.00  0.01  0.00
  WSF200WS02003060        1.00   0.00  0.03  0.00  0.51  0.47  0.00  0.00  0.75  0.00
  YS02001580YS02001583    1.00   0.20  0.64  0.00  0.16  0.00  0.00  0.00  0.73  0.00
  YS02001583YS02001586    1.00   0.50  0.28  0.00  0.22  0.00  0.00  0.00  0.73  0.00
  YS02001586YS02001590    1.00   0.13  0.00  0.00  0.37  0.04  0.00  0.47  0.33  0.00
  YS02001590YS02001593    1.00   0.13  0.01  0.00  0.08  0.00  0.78  0.00  0.00  0.00
  YS02001593YS02001596    1.00   0.14  0.00  0.00  0.10  0.01  0.00  0.76  0.02  0.00
  YS02001596YS02001600    1.00   0.14  0.00  0.00  0.17  0.02  0.00  0.67  0.07  0.00
  YS02001600YS02001601    1.00   0.13  0.01  0.00  0.86  0.00  0.00  0.00  0.63  0.00
  YS02001601YS02001602    1.00   0.13  0.01  0.00  0.86  0.00  0.00  0.00  0.00  0.00
  YS02001602YS02001605    1.00   0.14  0.00  0.00  0.86  0.00  0.00  0.00  0.00  0.00
  YS02001605YS02001607    1.00   0.14  0.00  0.00  0.86  0.00  0.00  0.00  0.00  0.00
  YS02001607YS02001610    1.00   0.13  0.01  0.00  0.86  0.00  0.00  0.00  0.02  0.00
  YS02001610YS02001613    1.00   0.13  0.00  0.00  0.87  0.00  0.00  0.00  0.00  0.00
  YS02001613YS02001616    1.00   0.13  0.00  0.00  0.87  0.00  0.00  0.00  0.00  0.00
  YS02001616YS02001619    1.00   0.13  0.00  0.00  0.87  0.00  0.00  0.00  0.00  0.00
  YS02001619YS02001622    1.00   0.13  0.00  0.00  0.87  0.00  0.00  0.00  0.36  0.00
  YS02001622YS02001625    1.00   0.13  0.00  0.00  0.87  0.00  0.00  0.00  0.04  0.00
  YS02001625YS02001629    1.00   0.13  0.05  0.00  0.12  0.00  0.70  0.00  0.00  0.00
  YS02001629YS02163301    1.00   0.15  0.01  0.00  0.84  0.00  0.00  0.00  0.00  0.00
  YS02001633YS02163601    1.00   0.00  0.01  0.00  0.99  0.00  0.00  0.00  0.15  0.00
  YS02001641YS02001644    1.00   0.00  0.01  0.00  0.99  0.00  0.00  0.00  0.00  0.00
  YS02001644YS02001647    1.00   0.00  0.17  0.00  0.83  0.00  0.00  0.00  0.00  0.00
  YS02001647YS02001649    1.00   0.00  0.17  0.00  0.52  0.31  0.00  0.00  0.60  0.00
  YS02001649YS02001757    1.00   0.00  0.00  0.00  0.67  0.32  0.00  0.00  0.61  0.00
  YS02001652YS02001649    1.00   0.00  0.00  0.00  0.97  0.03  0.00  0.00  0.76  0.00
  YS02001655YS02001652    1.00   0.00  0.00  0.00  0.14  0.02  0.00  0.84  0.08  0.00
  YS02001658YS02001655    1.00   0.00  0.14  0.00  0.62  0.24  0.00  0.00  0.76  0.00
  YS02001661YS02001658    1.00   0.14  0.00  0.00  0.48  0.38  0.00  0.00  0.78  0.00
  YS02001664YS02001661    1.00   0.13  0.00  0.00  0.75  0.13  0.00  0.00  0.87  0.00
  YS02001745YS02001748    1.00   0.00  0.00  0.00  0.03  0.01  0.00  0.96  0.03  0.00
  YS02001748YS02001751    1.00   0.00  0.00  0.00  0.78  0.22  0.00  0.00  0.82  0.00
  YS02001751YS02001754    1.00   0.00  0.00  0.00  0.09  0.01  0.00  0.90  0.04  0.00
  YS02001754YS02001757    1.00   0.00  0.00  0.00  1.00  0.00  0.00  0.00  0.89  0.00
  YS02001757CaochengTiaoxuchi    1.00   0.00  0.00  0.00  0.98  0.02  0.00  0.00  0.86  0.00
  YS02001759YS02001757    1.00   0.00  0.00  0.00  1.00  0.00  0.00  0.00  0.68  0.00
  YS02001762YS02001759    1.00   0.00  0.00  0.00  1.00  0.00  0.00  0.00  0.03  0.00
  YS02001765YS02001762    1.00   0.00  0.00  0.00  1.00  0.00  0.00  0.00  0.76  0.00
  YS02001767YS02001765    1.00   0.00  0.00  0.00  1.00  0.00  0.00  0.00  0.00  0.00
  YS02001770YS02001767    1.00   0.00  0.00  0.00  1.00  0.00  0.00  0.00  0.00  0.00
  YS02001774YS02001770    1.00   0.00  0.13  0.00  0.60  0.00  0.27  0.00  0.03  0.00
  YS02001779YS02001774    1.00   0.00  0.00  0.00  1.00  0.00  0.00  0.00  0.81  0.00
  YS02001783YS02001784    1.00   0.00  0.18  0.00  0.82  0.00  0.00  0.00  0.58  0.00
  YS02001784YS02001785    1.00   0.00  0.00  0.00  1.00  0.00  0.00  0.00  0.17  0.00
  YS02001786YS02001788    1.00   0.00  0.00  0.00  0.79  0.21  0.00  0.00  0.00  0.00
  YS02001788YS02001790    1.00   0.00  0.00  0.00  0.19  0.81  0.00  0.00  0.85  0.00
  YS02001790YS02001791    1.00   0.00  0.00  0.00  0.01  0.99  0.00  0.00  0.17  0.00
  YS02001791YS02001793    1.00   0.00  0.00  0.00  0.00  1.00  0.00  0.00  0.00  0.00
  YS02001793JiankangQianchi    1.00   0.00  0.00  0.00  0.99  0.01  0.00  0.00  0.98  0.00
  YS02001882YS02001884    1.00   0.15  0.01  0.00  0.84  0.00  0.00  0.00  0.00  0.00
  YS02001884YS02001887    1.00   0.06  0.05  0.00  0.89  0.00  0.00  0.00  0.00  0.00
  YS02001887YS02001890    1.00   0.00  0.00  0.00  0.97  0.00  0.03  0.00  0.00  0.00
  YS02001890YS02001895    1.00   0.00  0.16  0.00  0.84  0.00  0.00  0.00  0.00  0.00
  YS02001895YS02001898    1.00   0.17  0.00  0.00  0.82  0.00  0.01  0.00  0.00  0.00
  YS02001898YS02001901    1.00   0.17  0.00  0.00  0.83  0.00  0.00  0.00  0.01  0.00
  YS02001901YS02001904    1.00   0.17  0.00  0.00  0.83  0.00  0.00  0.00  0.00  0.00
  YS02001904YS02001907    1.00   0.00  0.16  0.00  0.83  0.00  0.00  0.00  0.00  0.00
  YS02001907YS02006553    1.00   0.00  0.02  0.00  0.98  0.00  0.00  0.00  0.00  0.00
  YS02001910YS02001907    1.00   0.00  0.00  0.00  0.97  0.00  0.00  0.03  0.12  0.00
  YS02001915YS02001910    1.00   0.00  0.00  0.00  0.96  0.04  0.00  0.00  0.16  0.00
  YS02001918YS02001915    1.00   0.00  0.00  0.00  0.98  0.02  0.00  0.00  0.79  0.00
  YS02001920YS02001918    1.00   0.00  0.00  0.00  1.00  0.00  0.00  0.00  0.01  0.00
  YS02001923YS02001920    1.00   0.00  0.00  0.00  1.00  0.00  0.00  0.00  0.95  0.00
  YS02001926YS02001923    1.00   0.00  0.07  0.00  0.04  0.00  0.89  0.00  0.00  0.00
  YS02001929YS02001926    1.00   0.00  0.13  0.00  0.87  0.00  0.00  0.00  0.85  0.00
  YS02006553YS02006556    1.00   0.01  0.00  0.00  0.99  0.00  0.00  0.00  0.03  0.00
  YS02006556YS02006558    1.00   0.00  0.00  0.00  1.00  0.00  0.00  0.00  0.00  0.00
  YS02006558YS02006561    1.00   0.18  0.00  0.00  0.03  0.79  0.00  0.00  0.20  0.00
  YS02006561YS02001783    1.00   0.18  0.00  0.00  0.06  0.77  0.00  0.00  0.73  0.00
  YS02163301YS02001633    1.00   0.00  0.15  0.00  0.85  0.00  0.00  0.00  0.00  0.00
  YS02163601YS02164001    1.00   0.00  0.08  0.00  0.92  0.00  0.00  0.00  0.00  0.00
  YS02164001YS02001641    1.00   0.01  0.07  0.00  0.92  0.00  0.00  0.00  0.06  0.00
  
  
  *************************
  Conduit Surcharge Summary
  *************************
  
  ----------------------------------------------------------------------------
                                                           Hours        Hours 
                         --------- Hours Full --------   Above Full   Capacity
  Conduit                Both Ends  Upstream  Dnstream   Normal Flow   Limited
  ----------------------------------------------------------------------------
  WS02003072WS02003073        0.01      0.01      0.01      0.84         0.01
  WS02004401WS02004402        0.01      0.01      0.01      0.01         0.01
  WS02004402WS02004403        0.01      0.01      0.01      0.01         0.01
  WS02004404WS02004405        0.01      0.01      0.01      2.40         0.01
  WS02004405WS02004406        0.01      0.01      0.01      0.45         0.01
  WS02006109WS02006110        0.52      0.52      1.43      0.61         0.01
  WS02006110WS02006113        0.01      0.01      1.41      0.01         0.01
  WS02006111WS02006112        0.01      0.01      1.58      0.01         0.01
  WS02006112WS02006115        0.01      0.01      0.48      0.01         0.01
  WS02006113WS02006111        0.01      0.01      0.01      0.01         0.01
  WS02006115WS02006116        0.01      0.01      0.01      0.01         0.01
  WS02006116WS02004401        0.01      0.01      0.01      0.01         0.01
  WS02006228WS02006109        1.36      1.43      1.36      1.72         1.36
  WS02006229WS02006228        1.34      1.38      1.34      1.58         1.33
  WS02006230WS02006229        1.49      1.54      1.49      3.00         1.49
  WS02006231WS02006230        0.53      0.53      0.67      2.40         0.01
  WS02006232WS02006231        0.63      0.63      1.44      0.69         0.01
  WS02006234WS02006232        1.31      1.31      1.44      0.67         0.67
  WS02006235WS02006234        0.93      0.94      1.35      2.19         0.01
  WS02006238WS02006235        1.36      1.36      1.44      0.01         0.01
  WS02006239WS02006238        1.37      1.41      1.39      1.43         1.21
  WS02006240WS02006239        1.33      1.36      1.34      1.42         1.17
  WS02006242WS02006240        1.35      1.35      1.46      1.47         0.01
  WS02006243WS02006242        1.35      1.35      1.42      0.01         0.04
  WS02006245WS02006243        1.34      1.34      1.34      0.87         0.77
  WS02006247WS02006245        1.33      1.36      1.33      1.79         1.33
  WS02006248WS02006247        1.33      1.33      1.35      0.01         0.04
  WS02006249WS02006248        1.32      1.32      1.34      1.73         0.01
  WS02006251WS02006249        1.33      1.34      1.34      1.47         1.28
  WS02006252WS02006251        1.52      1.53      1.55      1.52         0.01
  WS02006256WS02006235        2.24      2.30      6.72      1.23         0.01
  YS02001580YS02001583        0.35      0.35      0.41      0.01         0.01
  YS02001583YS02001586        0.36      0.36      0.48      0.01         0.01
  YS02001586YS02001590        0.49      0.49      0.55      0.01         0.01
  YS02001590YS02001593        0.55      0.55      0.57      0.61         0.01
  YS02001593YS02001596        0.56      0.56      0.64      0.01         0.01
  YS02001596YS02001600        0.68      0.68      0.78      0.01         0.01
  YS02001600YS02001601        0.84      0.84      1.17      0.01         0.01
  YS02001601YS02001602        1.02      1.02      1.22      0.80         0.01
  YS02001602YS02001605        0.97      0.97      1.02      1.98         0.01
  YS02001605YS02001607        0.92      0.97      0.92      1.11         0.92
  YS02001607YS02001610        0.48      0.48      0.51      0.01         0.01
  YS02001610YS02001613        0.47      0.47      0.51      0.01         0.01
  YS02001613YS02001616        0.44      0.44      0.47      0.01         0.01
  YS02001616YS02001619        0.42      0.42      0.44      0.01         0.01
  YS02001619YS02001622        0.42      0.42      0.42      0.60         0.41
  YS02001622YS02001625        0.42      0.42      0.60      0.01         0.01
  YS02001625YS02001629        0.34      0.34      0.60      0.01         0.01
  YS02001629YS02163301        0.58      0.58      0.59      0.32         0.30
  YS02001633YS02163601        0.60      0.60      0.63      0.50         0.49
  YS02001641YS02001644        0.46      0.50      0.46      1.29         0.46
  YS02001644YS02001647        0.26      0.26      0.46      0.04         0.01
  YS02001647YS02001649        0.26      0.26      0.32      0.01         0.01
  YS02001649YS02001757        0.31      0.32      0.33      0.29         0.26
  YS02001652YS02001649        0.18      0.18      0.32      0.01         0.01
  YS02001655YS02001652        0.01      0.01      0.14      0.01         0.01
  YS02001658YS02001655        0.01      0.01      0.01      0.01         0.01
  YS02001751YS02001754        0.01      0.01      0.02      0.01         0.01
  YS02001754YS02001757        0.06      0.06      0.33      0.01         0.01
  YS02001757CaochengTiaoxuchi        0.19      0.33      1.08      0.27         0.10
  YS02001759YS02001757        0.25      0.25      0.33      0.01         0.01
  YS02001762YS02001759        0.23      0.23      0.25      0.01         0.01
  YS02001765YS02001762        0.20      0.20      0.23      0.01         0.01
  YS02001767YS02001765        0.17      0.17      0.20      0.01         0.01
  YS02001770YS02001767        0.17      0.18      0.17      0.37         0.14
  YS02001774YS02001770        0.14      0.14      0.23      0.01         0.01
  YS02001779YS02001774        0.04      0.04      0.23      0.01         0.01
  YS02001783YS02001784        0.31      0.33      0.31      0.45         0.31
  YS02001784YS02001785        0.20      0.31      0.20      0.64         0.20
  YS02001786YS02001788        0.01      0.20      0.01      0.52         0.01
  YS02001790YS02001791        0.01      0.01      0.01      0.30         0.01
  YS02001793JiankangQianchi        0.01      0.01      6.22      0.01         0.01
  YS02001882YS02001884        0.28      0.28      0.29      0.01         0.01
  YS02001884YS02001887        0.31      0.31      0.32      0.01         0.01
  YS02001887YS02001890        0.34      0.34      0.35      0.01         0.01
  YS02001890YS02001895        0.27      0.27      0.36      0.01         0.01
  YS02001895YS02001898        0.26      0.26      0.27      0.01         0.01
  YS02001898YS02001901        0.27      0.27      0.31      0.01         0.01
  YS02001901YS02001904        0.30      0.30      0.31      0.01         0.01
  YS02001904YS02001907        0.30      0.30      0.51      0.01         0.01
  YS02001907YS02006553        0.65      0.65      0.71      0.01         0.01
  YS02001910YS02001907        0.36      0.36      0.49      0.01         0.01
  YS02001915YS02001910        0.28      0.28      0.36      0.01         0.01
  YS02001918YS02001915        0.19      0.19      0.28      0.01         0.01
  YS02001920YS02001918        0.19      0.19      0.21      0.01         0.01
  YS02001923YS02001920        0.13      0.13      0.21      0.01         0.01
  YS02001926YS02001923        0.01      0.01      0.01      0.01         0.01
  YS02001929YS02001926        0.01      0.01      0.01      0.01         0.01
  YS02006553YS02006556        0.43      0.43      0.51      0.01         0.01
  YS02006556YS02006558        0.47      0.47      0.52      0.01         0.01
  YS02006558YS02006561        0.23      0.42      0.23      0.60         0.23
  YS02006561YS02001783        0.15      0.15      0.33      0.01         0.01
  YS02163301YS02001633        0.59      0.59      0.62      0.01         0.01
  YS02163601YS02164001        0.52      0.52      0.63      0.25         0.01
  YS02164001YS02001641        0.50      0.52      0.50      0.68         0.50
  
  
  ***************
  Pumping Summary
  ***************
  
  ---------------------------------------------------------------------------------------------------------
                                                  Min       Avg       Max     Total     Power    % Time Off
                        Percent   Number of      Flow      Flow      Flow    Volume     Usage    Pump Curve
  Pump                 Utilized   Start-Ups       LPS       LPS       LPS  10^6 ltr     Kw-hr    Low   High
  ---------------------------------------------------------------------------------------------------------
  CC-R1                   19.01          27      0.00    683.00    683.00     3.739     65.55    0.0   52.5
  CC-R2                   14.59          31      0.00    683.00    683.00     2.871     50.61    0.0   39.2
  CC-S1                   21.43          20      0.00    200.00    200.00     1.234      7.84    0.0    0.0
  CC-S2                   22.06          21      0.00    200.00    200.00     1.271      8.07    0.0    0.0
  JK-R1                    4.43          15      0.00   1000.00   1000.00     1.276     13.19    0.0    0.0
  JK-R2                    2.17          11      0.00   1000.00   1000.00     0.624      4.87    0.0    0.0
  JK-S                    14.68          45      0.00    300.00    300.00     1.268     22.33    0.0    0.0
  

  Analysis begun on:  Fri Aug  4 07:05:16 2023
  Analysis ended on:  Fri Aug  4 07:05:21 2023
  Total elapsed time: 00:00:05