
  OWA STORM WATER MANAGEMENT MODEL - VERSION v5.1.14 (OWA 2022-07-31)
  --------------------------------------------------------------

  WARNING 04: minimum elevation drop used for Conduit WS02004404WS02004405
  WARNING 03: negative offset ignored for Link YS02001904YS02001907
  
  *********************************************************
  NOTE: The summary statistics displayed in this report are
  based on results found at every computational time step,  
  not just on results from each reporting time step.
  *********************************************************
  
  ****************
  Analysis Options
  ****************
  Flow Units ............... LPS
  Process Models:
    Rainfall/Runoff ........ YES
    RDII ................... NO
    Snowmelt ............... NO
    Groundwater ............ NO
    Flow Routing ........... YES
    Ponding Allowed ........ NO
    Water Quality .......... NO
  Infiltration Method ...... HORTON
  Flow Routing Method ...... DYNWAVE
  Surcharge Method ......... EXTRAN
  Starting Date ............ 08/28/2015 08:00:00
  Ending Date .............. 08/28/2015 16:00:00
  Antecedent Dry Days ...... 8.0
  Report Time Step ......... 00:01:00
  Wet Time Step ............ 00:01:00
  Dry Time Step ............ 00:01:00
  Routing Time Step ........ 30.00 sec
  Variable Time Step ....... YES
  Maximum Trials ........... 8
  Number of Threads ........ 1
  Head Tolerance ........... 0.001500 m
  
  
  **************************        Volume         Depth
  Runoff Quantity Continuity     hectare-m            mm
  **************************     ---------       -------
  Initial LID Storage ......         0.049         1.488
  Total Precipitation ......         0.908        27.379
  Evaporation Loss .........         0.000         0.000
  Infiltration Loss ........         0.066         1.977
  Surface Runoff ...........         0.626        18.872
  Final Storage ............         0.266         8.025
  Continuity Error (%) .....        -0.025
  
  
  **************************        Volume        Volume
  Flow Routing Continuity        hectare-m      10^6 ltr
  **************************     ---------     ---------
  Dry Weather Inflow .......         0.000         0.000
  Wet Weather Inflow .......         0.625         6.249
  Groundwater Inflow .......         0.000         0.000
  RDII Inflow ..............         0.000         0.000
  External Inflow ..........         0.083         0.834
  External Outflow .........         0.789         7.891
  Flooding Loss ............         0.017         0.171
  Evaporation Loss .........         0.000         0.000
  Exfiltration Loss ........         0.000         0.000
  Initial Stored Volume ....         0.243         2.431
  Final Stored Volume ......         0.178         1.778
  Continuity Error (%) .....        -3.422
  
  
  *************************
  Highest Continuity Errors
  *************************
  Node YS02001774 (4.68%)
  Node YS02001884 (4.60%)
  Node WS02006256 (-4.40%)
  Node YS02001583 (-2.86%)
  Node WS02006110 (-2.36%)
  
  
  ***************************
  Time-Step Critical Elements
  ***************************
  Link WS02006252WS02006251 (52.38%)
  Link WS02006238WS02006235 (20.39%)
  Link WS02004404WS02004405 (17.99%)
  Link WS02003066WSF200 (4.45%)
  
  
  ********************************
  Highest Flow Instability Indexes
  ********************************
  Link WS02006113WS02006111 (33)
  Link WS02006256WS02006235 (12)
  Link WS02004404WS02004405 (10)
  Link WS02004403WS02004404 (8)
  Link WS02006238WS02006235 (7)
  
  
  *************************
  Routing Time Step Summary
  *************************
  Minimum Time Step           :     0.00 sec
  Average Time Step           :     2.37 sec
  Maximum Time Step           :    30.00 sec
  Percent in Steady State     :    -0.00
  Average Iterations per Step :     2.61
  Percent Not Converging      :     5.82
  
  
  ***************************
  Subcatchment Runoff Summary
  ***************************
  
  ------------------------------------------------------------------------------------------------------------------------------
                            Total      Total      Total      Total     Imperv       Perv      Total       Total     Peak  Runoff
                           Precip      Runon       Evap      Infil     Runoff     Runoff     Runoff      Runoff   Runoff   Coeff
  Subcatchment                 mm         mm         mm         mm         mm         mm         mm    10^6 ltr      LPS
  ------------------------------------------------------------------------------------------------------------------------------
  sub60                     27.38       0.00       0.00       1.23      17.67       1.30      18.97        0.25   163.87   0.693
  sub61                     27.38       0.00       0.00       1.88      17.65       1.93      19.58        0.36   232.18   0.715
  sub62                     27.38       0.00       0.00       0.84      18.81       0.89      19.70        0.54   316.68   0.719
  sub63                     27.38       0.00       0.00       3.39      15.12       3.11      18.23        0.41   244.31   0.666
  sub64                     27.38       0.00       0.00       1.63      17.20       1.57      18.77        0.45   242.26   0.686
  sub65                     27.38       0.00       0.00       1.50      18.56       1.43      19.99        0.55   277.78   0.730
  sub66                     27.38       0.00       0.00       3.81      14.59       2.49      17.07        0.80   327.11   0.624
  sub67                     27.38       0.00       0.00       0.84      19.30       0.93      20.22        0.38   270.89   0.739
  sub68                     27.38       0.00       0.00       1.44      17.04       1.48      18.52        0.51   315.27   0.676
  sub69                     27.38       0.00       0.00       1.25      18.37       2.01      20.38        0.75   382.13   0.744
  sub70                     27.38       0.00       0.00       4.00      14.69       3.62      18.31        0.53   197.06   0.669
  sub71                     27.38       0.00       0.00       0.77      17.08       0.80      17.88        0.47   251.53   0.653
  sub72                     27.38       0.00       0.00       0.73      18.43       0.74      19.17        0.26   122.50   0.700
  

  ***********************
  LID Performance Summary
  ***********************

  --------------------------------------------------------------------------------------------------------------------
                                         Total      Evap     Infil   Surface    Drain    Initial     Final  Continuity
                                        Inflow      Loss      Loss   Outflow   Outflow   Storage   Storage       Error
  Subcatchment      LID Control             mm        mm        mm        mm        mm        mm        mm           %
  --------------------------------------------------------------------------------------------------------------------
  sub60             GreenRoof            27.38      0.00      0.00      0.00      0.00      7.05     34.43        0.00
  sub61             GreenRoof            27.38      0.00      0.00      0.00      0.00      7.05     34.43        0.00
  sub62             GreenRoof            27.38      0.00      0.00      0.00      0.00      7.05     34.43        0.00
  sub63             GreenRoof            27.38      0.00      0.00      0.00      0.00      7.05     34.43        0.00
  sub64             GreenRoof            27.38      0.00      0.00      0.00      0.00      7.05     34.43        0.00
  sub65             GreenRoof            27.38      0.00      0.00      0.00      0.00      7.05     34.43        0.00
  sub66             GreenRoof            27.38      0.00      0.00      0.00      0.00      7.05     34.43        0.00
  sub67             GreenRoof            27.38      0.00      0.00      0.00      0.00      7.05     34.43        0.00
  sub68             GreenRoof            27.38      0.00      0.00      0.00      0.00      7.05     34.43        0.00
  sub69             GreenRoof            27.38      0.00      0.00      0.00      0.00      7.05     34.43        0.00
  sub70             GreenRoof            27.38      0.00      0.00      0.00      0.00      7.05     34.43        0.00
  sub71             GreenRoof            27.38      0.00      0.00      0.00      0.00      7.05     34.43        0.00
  sub72             GreenRoof            27.38      0.00      0.00      0.00      0.00      7.05     34.43        0.00
  
  ******************
  Node Depth Summary
  ******************
  
  ---------------------------------------------------------------------------------
                                 Average  Maximum  Maximum  Time of Max    Reported
                                   Depth    Depth      HGL   Occurrence   Max Depth
  Node                 Type       Meters   Meters   Meters  days hr:min      Meters
  ---------------------------------------------------------------------------------
  WS02003060           JUNCTION     0.19     0.36     5.29     0  02:09        0.36
  WS02003066           JUNCTION     0.17     0.28     5.84     0  02:09        0.28
  WS02003067           JUNCTION     0.46     0.67     5.99     0  02:09        0.67
  WS02003069           JUNCTION     0.21     0.40     4.98     0  02:10        0.40
  WS02003072           JUNCTION     0.27     0.47     4.84     0  02:11        0.47
  WS02003073           JUNCTION     0.15     0.28     4.34     0  02:12        0.28
  WS02004401           JUNCTION     0.53     0.84     6.84     0  02:06        0.84
  WS02004402           JUNCTION     0.56     0.87     6.83     0  02:06        0.86
  WS02004403           JUNCTION     0.59     0.89     6.82     0  02:06        0.88
  WS02004404           JUNCTION     0.67     0.99     6.84     0  02:06        0.95
  WS02004405           JUNCTION     0.66     0.94     6.79     0  02:06        0.93
  WS02004406           JUNCTION     0.67     0.94     6.77     0  02:06        0.94
  WS02004407           JUNCTION     0.14     0.29     6.60     0  02:07        0.28
  WS02004409           JUNCTION     0.31     0.61     6.38     0  02:07        0.61
  WS02004410           JUNCTION     0.34     0.63     6.35     0  02:08        0.63
  WS02004411           JUNCTION     0.37     0.64     6.32     0  02:08        0.64
  WS02004412           JUNCTION     0.39     0.65     6.29     0  02:08        0.65
  WS02004413           JUNCTION     0.56     0.82     6.29     0  02:09        0.82
  WS02006109           JUNCTION     0.56     1.24     7.85     0  00:00        0.97
  WS02006110           JUNCTION     0.58     1.45     8.04     0  00:00        0.92
  WS02006111           JUNCTION     0.14     1.67     8.37     0  00:00        0.56
  WS02006112           JUNCTION     0.67     2.68     8.56     0  00:00        1.29
  WS02006113           JUNCTION     0.21     1.50     8.40     0  00:00        0.45
  WS02006115           JUNCTION     0.40     1.69     7.83     0  00:00        0.86
  WS02006116           JUNCTION     0.49     1.11     7.15     0  00:00        0.81
  WS02006228           JUNCTION     0.54     1.64     8.29     0  00:00        1.01
  WS02006229           JUNCTION     0.51     1.31     8.00     0  00:00        1.01
  WS02006230           JUNCTION     0.48     1.16     7.91     0  02:01        1.11
  WS02006231           JUNCTION     0.31     0.91     8.03     0  02:01        0.86
  WS02006232           JUNCTION     0.43     1.76     8.80     0  02:50        1.05
  WS02006234           JUNCTION     0.33     1.57     8.73     0  03:00        1.06
  WS02006235           JUNCTION     0.37     1.27     8.43     0  03:00        1.14
  WS02006238           JUNCTION     0.39     1.34     8.49     0  02:50        1.18
  WS02006239           JUNCTION     0.35     1.81     9.02     0  03:00        1.16
  WS02006240           JUNCTION     0.31     1.96     9.25     0  03:00        1.12
  WS02006242           JUNCTION     0.37     1.55     8.82     0  02:50        1.20
  WS02006243           JUNCTION     0.28     1.48     8.90     0  03:00        1.11
  WS02006245           JUNCTION     0.28     1.12     8.61     0  02:01        1.10
  WS02006247           JUNCTION     0.30     1.14     8.64     0  02:01        1.12
  WS02006248           JUNCTION     0.27     1.08     8.67     0  02:01        1.07
  WS02006249           JUNCTION     0.30     1.09     8.69     0  02:01        1.09
  WS02006251           JUNCTION     0.29     1.29     8.96     0  02:01        1.12
  WS02006252           JUNCTION     0.25     1.50     9.74     0  01:55        0.68
  WS02006256           JUNCTION     0.80     2.35     9.28     0  00:10        2.35
  WSF200               JUNCTION     0.13     0.27     5.50     0  02:09        0.27
  YS02001580           JUNCTION     0.03     0.63     9.17     0  01:46        0.63
  YS02001583           JUNCTION     0.06     0.63     9.12     0  01:45        0.58
  YS02001586           JUNCTION     0.13     1.07     9.24     0  01:47        0.91
  YS02001590           JUNCTION     0.22     1.40     9.26     0  01:47        1.17
  YS02001593           JUNCTION     0.16     1.38     9.24     0  01:47        1.14
  YS02001596           JUNCTION     0.22     1.72     9.14     0  01:47        1.55
  YS02001600           JUNCTION     0.30     1.87     9.00     0  01:47        1.80
  YS02001601           JUNCTION     0.49     2.06     8.90     0  01:38        2.06
  YS02001602           JUNCTION     0.41     1.87     8.77     0  01:38        1.87
  YS02001605           JUNCTION     0.37     1.65     8.56     0  01:44        1.54
  YS02001607           JUNCTION     0.35     1.32     8.17     0  01:44        1.17
  YS02001610           JUNCTION     0.39     1.35     8.15     0  01:44        1.21
  YS02001613           JUNCTION     0.35     1.26     8.10     0  01:44        1.15
  YS02001616           JUNCTION     0.29     1.12     8.04     0  01:44        1.06
  YS02001619           JUNCTION     0.27     1.09     8.02     0  01:44        1.03
  YS02001622           JUNCTION     0.25     1.13     8.03     0  01:44        1.02
  YS02001625           JUNCTION     0.50     1.30     7.91     0  01:44        1.27
  YS02001629           JUNCTION     0.38     1.29     7.84     0  01:45        1.29
  YS02001633           JUNCTION     0.44     1.31     7.76     0  01:45        1.30
  YS02001641           JUNCTION     0.43     1.11     7.55     0  01:45        1.09
  YS02001644           JUNCTION     0.42     1.04     7.48     0  01:45        1.03
  YS02001647           JUNCTION     0.20     0.67     7.28     0  01:45        0.66
  YS02001649           JUNCTION     0.23     0.73     7.12     0  01:46        0.73
  YS02001652           JUNCTION     0.11     0.53     7.13     0  01:46        0.53
  YS02001655           JUNCTION     0.06     0.26     7.11     0  01:46        0.25
  YS02001658           JUNCTION     0.06     0.22     7.36     0  01:40        0.22
  YS02001661           JUNCTION     0.11     0.28     7.68     0  01:40        0.28
  YS02001664           JUNCTION     0.05     0.19     8.11     0  01:40        0.19
  YS02001745           JUNCTION     0.04     0.17     7.69     0  01:39        0.17
  YS02001748           JUNCTION     0.05     0.19     7.27     0  01:39        0.19
  YS02001751           JUNCTION     0.05     0.19     7.07     0  01:39        0.19
  YS02001754           JUNCTION     0.07     0.38     6.98     0  01:46        0.37
  YS02001757           JUNCTION     0.22     0.73     6.99     0  01:45        0.72
  YS02001759           JUNCTION     0.16     0.63     6.99     0  01:46        0.63
  YS02001762           JUNCTION     0.15     0.60     7.00     0  01:46        0.59
  YS02001765           JUNCTION     0.13     0.56     7.01     0  01:46        0.55
  YS02001767           JUNCTION     0.13     0.52     7.01     0  01:46        0.52
  YS02001770           JUNCTION     0.15     0.53     7.03     0  01:47        0.53
  YS02001774           JUNCTION     0.21     0.61     7.03     0  01:47        0.60
  YS02001779           JUNCTION     0.05     0.34     7.03     0  01:47        0.34
  YS02001783           JUNCTION     0.19     0.70     6.84     0  01:46        0.69
  YS02001784           JUNCTION     0.21     0.70     6.76     0  01:46        0.69
  YS02001786           JUNCTION     0.18     0.58     6.61     0  01:46        0.58
  YS02001788           JUNCTION     0.13     0.46     6.43     0  01:46        0.46
  YS02001790           JUNCTION     0.16     0.54     6.19     0  01:47        0.54
  YS02001791           JUNCTION     0.10     0.33     5.80     0  01:47        0.33
  YS02001793           JUNCTION     0.05     0.17     5.00     0  01:47        0.17
  YS02001882           JUNCTION     0.22     0.73     7.44     0  01:47        0.73
  YS02001884           JUNCTION     0.31     0.82     7.44     0  01:47        0.82
  YS02001887           JUNCTION     0.37     0.90     7.44     0  01:46        0.90
  YS02001890           JUNCTION     0.40     0.93     7.44     0  01:46        0.93
  YS02001895           JUNCTION     0.20     0.69     7.44     0  01:46        0.68
  YS02001898           JUNCTION     0.20     0.70     7.43     0  01:45        0.70
  YS02001901           JUNCTION     0.31     0.83     7.44     0  01:46        0.82
  YS02001904           JUNCTION     0.29     0.80     7.43     0  01:46        0.80
  YS02001907           JUNCTION     0.57     1.14     7.43     0  01:45        1.14
  YS02001910           JUNCTION     0.39     0.93     7.44     0  01:46        0.93
  YS02001915           JUNCTION     0.22     0.72     7.44     0  01:45        0.71
  YS02001918           JUNCTION     0.07     0.37     7.44     0  01:44        0.37
  YS02001920           JUNCTION     0.14     0.44     7.45     0  01:44        0.44
  YS02001923           JUNCTION     0.05     0.17     7.43     0  01:45        0.16
  YS02001926           JUNCTION     0.11     0.29     7.74     0  01:43        0.29
  YS02001929           JUNCTION     0.05     0.16     7.86     0  01:43        0.16
  YS02006553           JUNCTION     0.57     1.14     7.42     0  01:45        1.13
  YS02006556           JUNCTION     0.55     1.09     7.40     0  01:45        1.09
  YS02006558           JUNCTION     0.58     1.13     7.40     0  01:43        1.13
  YS02006561           JUNCTION     0.11     0.39     7.05     0  01:42        0.39
  YS02163301           JUNCTION     0.40     1.29     7.81     0  01:45        1.28
  YS02163601           JUNCTION     0.48     1.26     7.66     0  01:44        1.24
  YS02164001           JUNCTION     0.42     1.14     7.60     0  01:44        1.12
  CC-1                 OUTFALL      0.00     0.00     0.00     0  00:00        0.00
  CC-2                 OUTFALL      0.00     0.00     0.00     0  00:00        0.00
  JK-1                 OUTFALL      0.00     0.00     0.00     0  00:00        0.00
  JK-2                 OUTFALL      0.00     0.00     0.00     0  00:00        0.00
  WSC                  OUTFALL      0.15     0.28     0.95     0  02:12        0.28
  CC-storage           STORAGE      0.66     0.88     6.38     0  02:25        0.88
  JK-storage           STORAGE      1.43     3.28     4.08     0  02:10        3.28
  
  
  *******************
  Node Inflow Summary
  *******************
  
  -------------------------------------------------------------------------------------------------
                                  Maximum  Maximum                  Lateral       Total        Flow
                                  Lateral    Total  Time of Max      Inflow      Inflow     Balance
                                   Inflow   Inflow   Occurrence      Volume      Volume       Error
  Node                 Type           LPS      LPS  days hr:min    10^6 ltr    10^6 ltr     Percent
  -------------------------------------------------------------------------------------------------
  WS02003060           JUNCTION     16.53   486.99     0  02:09       0.476        2.84       0.074
  WS02003066           JUNCTION      0.00   468.28     0  02:09           0        2.37       0.053
  WS02003067           JUNCTION      0.00   467.20     0  02:09           0        2.37       0.168
  WS02003069           JUNCTION      0.32   487.22     0  02:10     0.00922        2.85       0.119
  WS02003072           JUNCTION      0.00   483.47     0  02:10           0        2.84       0.220
  WS02003073           JUNCTION      1.82   482.70     0  02:11      0.0524        2.89       0.171
  WS02004401           JUNCTION      0.00  1786.04     0  00:00           0        2.47       0.429
  WS02004402           JUNCTION      0.00  1248.69     0  00:01           0        2.46       0.433
  WS02004403           JUNCTION      0.00   929.44     0  00:01           0        2.45       0.430
  WS02004404           JUNCTION      0.00   877.02     0  00:01           0        2.44       0.407
  WS02004405           JUNCTION      0.00   827.31     0  00:01           0        2.43       0.458
  WS02004406           JUNCTION      0.00   768.45     0  00:02           0        2.42       0.874
  WS02004407           JUNCTION      0.00   503.67     0  02:07           0         2.4       0.034
  WS02004409           JUNCTION      0.00   501.07     0  02:07           0         2.4       0.092
  WS02004410           JUNCTION      0.00   490.45     0  02:07           0         2.4       0.167
  WS02004411           JUNCTION      0.00   482.74     0  02:08           0        2.39       0.216
  WS02004412           JUNCTION      0.00   476.61     0  02:08           0        2.39       0.290
  WS02004413           JUNCTION      0.00   472.06     0  02:08           0        2.38       0.545
  WS02006109           JUNCTION      0.00  1446.81     0  00:00           0        2.37      -0.263
  WS02006110           JUNCTION      0.00   544.65     0  02:02           0        2.35      -2.303
  WS02006111           JUNCTION      0.00  1180.41     0  00:00           0         2.4      -1.755
  WS02006112           JUNCTION      0.00  2307.30     0  00:00           0        2.44      -0.023
  WS02006113           JUNCTION      0.00   557.23     0  02:01           0        2.37      -1.603
  WS02006115           JUNCTION      0.00   953.54     0  00:00           0        2.42      -1.479
  WS02006116           JUNCTION      0.00  1264.47     0  00:00           0        2.45      -0.957
  WS02006228           JUNCTION      0.00   869.18     0  00:00           0        2.35      -0.096
  WS02006229           JUNCTION      0.00   543.85     0  02:02           0        2.34      -0.069
  WS02006230           JUNCTION     10.28   706.67     0  00:00       0.296        2.33       0.013
  WS02006231           JUNCTION      0.00   537.16     0  02:01           0        2.02       0.092
  WS02006232           JUNCTION      0.00   537.54     0  02:01           0        2.02       0.309
  WS02006234           JUNCTION      0.00   538.72     0  02:01           0        2.01      -0.356
  WS02006235           JUNCTION      0.00   542.23     0  02:01           0        2.09       0.455
  WS02006238           JUNCTION      0.00   393.45     0  02:05           0         1.7      -0.181
  WS02006239           JUNCTION      0.00   388.72     0  02:05           0        1.64      -0.449
  WS02006240           JUNCTION      0.00   389.29     0  02:24           0        1.61       0.023
  WS02006242           JUNCTION      0.00   391.68     0  02:24           0         1.6       0.107
  WS02006243           JUNCTION      0.00   391.71     0  01:57           0        1.59      -0.694
  WS02006245           JUNCTION      0.00   404.07     0  02:24           0         1.6       0.777
  WS02006247           JUNCTION      0.00   407.42     0  02:24           0         1.6      -0.006
  WS02006248           JUNCTION      0.00   415.50     0  02:24           0        1.59      -0.294
  WS02006249           JUNCTION      0.00   452.52     0  03:10           0        1.63       1.276
  WS02006251           JUNCTION      0.00   406.35     0  01:55           0        1.63       0.079
  WS02006252           JUNCTION      0.00   400.00     0  01:55           0        1.61      -1.017
  WS02006256           JUNCTION      0.00   300.00     0  00:10           0        0.52      -4.216
  WSF200               JUNCTION      0.00   468.12     0  02:09           0        2.36       0.016
  YS02001580           JUNCTION      0.00    48.16     0  01:44           0     0.00554       1.147
  YS02001583           JUNCTION      0.00    70.14     0  01:43           0      0.0162      -2.784
  YS02001586           JUNCTION    197.06   222.72     0  01:47       0.529        0.54       0.161
  YS02001590           JUNCTION      0.00   217.29     0  01:47           0       0.528      -0.027
  YS02001593           JUNCTION      0.00   210.88     0  01:50           0       0.528      -0.018
  YS02001596           JUNCTION      0.00   210.43     0  01:52           0       0.528      -0.047
  YS02001600           JUNCTION      0.00   210.45     0  01:52           0       0.529       0.046
  YS02001601           JUNCTION    382.13   541.59     0  01:46       0.753        1.28       0.041
  YS02001602           JUNCTION      0.00   519.14     0  01:47           0        1.28       0.015
  YS02001605           JUNCTION      0.00   519.14     0  01:47           0        1.28       0.018
  YS02001607           JUNCTION      0.00   519.14     0  01:47           0        1.28       0.112
  YS02001610           JUNCTION      0.00   521.20     0  01:47           0        1.28       0.156
  YS02001613           JUNCTION      0.00   521.39     0  01:47           0        1.28       0.105
  YS02001616           JUNCTION      0.00   520.88     0  01:47           0        1.28       0.024
  YS02001619           JUNCTION    327.11   843.24     0  01:44       0.795        2.07      -0.009
  YS02001622           JUNCTION      0.00   853.63     0  01:44           0        2.07      -0.003
  YS02001625           JUNCTION      0.00   843.28     0  01:45           0        2.07       0.450
  YS02001629           JUNCTION      0.00   843.36     0  01:45           0        2.06       0.019
  YS02001633           JUNCTION    277.78  1102.62     0  01:45       0.549        2.61       0.116
  YS02001641           JUNCTION      0.00  1102.70     0  01:45           0        2.61       0.100
  YS02001644           JUNCTION    242.26  1317.49     0  01:45        0.45        3.06       0.099
  YS02001647           JUNCTION      0.00  1320.19     0  01:45           0        3.04       0.012
  YS02001649           JUNCTION      0.00  1510.82     0  01:45           0        3.45       0.012
  YS02001652           JUNCTION      0.00   250.10     0  01:41           0       0.411      -0.461
  YS02001655           JUNCTION      0.00   243.78     0  01:40           0       0.413       0.358
  YS02001658           JUNCTION      0.00   243.94     0  01:40           0       0.413      -0.002
  YS02001661           JUNCTION      0.00   244.17     0  01:40           0       0.413       0.092
  YS02001664           JUNCTION    244.31   244.31     0  01:40       0.413       0.413      -0.023
  YS02001745           JUNCTION    163.87   163.87     0  01:40       0.249       0.249      -0.011
  YS02001748           JUNCTION      0.00   163.84     0  01:39           0       0.249       0.001
  YS02001751           JUNCTION      0.00   164.11     0  01:39           0       0.249       0.348
  YS02001754           JUNCTION      0.00   164.03     0  01:40           0       0.248      -0.490
  YS02001757           JUNCTION      0.00  2055.42     0  01:45           0        4.61       0.038
  YS02001759           JUNCTION    232.18   483.03     0  01:41       0.358       0.896      -0.031
  YS02001762           JUNCTION      0.00   274.25     0  01:41           0       0.537       0.021
  YS02001765           JUNCTION      0.00   286.15     0  01:41           0       0.538       0.015
  YS02001767           JUNCTION      0.00   298.36     0  01:41           0       0.538       0.025
  YS02001770           JUNCTION    316.68   316.68     0  01:41       0.539       0.558      -0.045
  YS02001774           JUNCTION      0.00    44.73     0  01:36           0      0.0257       4.913
  YS02001779           JUNCTION      0.00    16.53     0  01:37           0      0.0055       0.316
  YS02001783           JUNCTION      0.00   765.66     0  01:46           0        1.55       0.002
  YS02001784           JUNCTION      0.00   764.94     0  01:46           0        1.55       0.005
  YS02001786           JUNCTION      0.00   763.68     0  01:46           0        1.55       0.018
  YS02001788           JUNCTION      0.00   763.38     0  01:46           0        1.55       0.011
  YS02001790           JUNCTION      0.00   763.71     0  01:47           0        1.55       0.019
  YS02001791           JUNCTION      0.00   790.07     0  01:47           0        1.55       0.007
  YS02001793           JUNCTION      0.00   765.72     0  01:47           0        1.55       0.008
  YS02001882           JUNCTION      0.00    33.96     0  01:41           0      0.0128       3.405
  YS02001884           JUNCTION      0.00    91.71     0  01:40           0      0.0418       4.823
  YS02001887           JUNCTION    270.89   270.89     0  01:39       0.375       0.402       0.937
  YS02001890           JUNCTION      0.00   235.07     0  01:42           0       0.369       1.204
  YS02001895           JUNCTION      0.00   219.99     0  01:43           0       0.365       0.604
  YS02001898           JUNCTION      0.00   220.52     0  01:43           0       0.363      -0.211
  YS02001901           JUNCTION      0.00   212.99     0  01:48           0       0.366       0.743
  YS02001904           JUNCTION      0.00   209.99     0  01:42           0       0.378       0.631
  YS02001907           JUNCTION      0.00   557.71     0  01:49           0        1.11       1.489
  YS02001910           JUNCTION      0.00   385.84     0  01:45           0       0.728       0.867
  YS02001915           JUNCTION    251.53   362.71     0  01:45       0.467       0.729       0.110
  YS02001918           JUNCTION      0.00   129.22     0  01:45           0       0.263       0.008
  YS02001920           JUNCTION      0.00   127.05     0  01:45           0       0.263       0.210
  YS02001923           JUNCTION      0.00   122.23     0  01:43           0       0.263      -0.018
  YS02001926           JUNCTION      0.00   122.46     0  01:43           0       0.263       0.080
  YS02001929           JUNCTION    122.50   122.50     0  01:43       0.263       0.263      -0.022
  YS02006553           JUNCTION      0.00   559.06     0  01:49           0        1.11       0.982
  YS02006556           JUNCTION      0.00   559.63     0  01:49           0        1.14       0.661
  YS02006558           JUNCTION    315.27   772.55     0  01:42       0.508         1.6       0.197
  YS02006561           JUNCTION      0.00   764.86     0  01:46           0        1.55      -0.011
  YS02163301           JUNCTION      0.00   848.34     0  01:46           0        2.07       0.063
  YS02163601           JUNCTION      0.00  1102.57     0  01:45           0        2.61       0.181
  YS02164001           JUNCTION      0.00  1102.32     0  01:45           0        2.61       0.081
  CC-1                 OUTFALL       0.00   683.00     0  00:20           0        2.32       0.000
  CC-2                 OUTFALL       0.00   683.00     0  00:20           0        1.53       0.000
  JK-1                 OUTFALL       0.00  1000.00     0  01:45           0       0.771       0.000
  JK-2                 OUTFALL       0.00  1000.00     0  00:05           0       0.392       0.000
  WSC                  OUTFALL       0.00   479.64     0  02:12           0        2.88       0.000
  CC-storage           STORAGE       0.00  2025.07     0  01:45           0        6.83      -0.294
  JK-storage           STORAGE       0.00   765.43     0  01:47           0         1.7      -1.031
  
  
  **********************
  Node Surcharge Summary
  **********************
  
  Surcharging occurs when water rises above the top of the highest conduit.
  ---------------------------------------------------------------------
                                               Max. Height   Min. Depth
                                   Hours       Above Crown    Below Rim
  Node                 Type      Surcharged         Meters       Meters
  ---------------------------------------------------------------------
  WS02006109           JUNCTION        0.14          0.416        1.404
  WS02006110           JUNCTION        0.06          0.544        1.306
  WS02006111           JUNCTION        0.01          0.856        1.014
  WS02006112           JUNCTION        0.04          1.680        0.000
  WS02006113           JUNCTION        0.01          0.705        1.225
  WS02006115           JUNCTION        0.01          0.682        1.568
  WS02006116           JUNCTION        0.01          0.053        2.237
  WS02006228           JUNCTION        0.13          0.810        1.390
  WS02006229           JUNCTION        0.15          0.510        1.940
  WS02006230           JUNCTION        0.05          0.085        1.485
  WS02006231           JUNCTION        0.07          0.198        1.332
  WS02006232           JUNCTION        0.21          1.065        0.415
  WS02006234           JUNCTION        0.11          0.848        0.392
  WS02006235           JUNCTION        0.13          0.557        0.733
  WS02006238           JUNCTION        0.14          0.622        0.808
  WS02006239           JUNCTION        0.12          1.073        0.217
  WS02006240           JUNCTION        0.12          1.248        0.142
  WS02006242           JUNCTION        0.24          0.820        0.000
  WS02006243           JUNCTION        0.09          0.770        0.000
  WS02006245           JUNCTION        0.09          0.411        0.439
  WS02006247           JUNCTION        0.11          0.431        0.329
  WS02006248           JUNCTION        0.08          0.361        0.019
  WS02006249           JUNCTION        0.11          0.390        0.000
  WS02006251           JUNCTION        0.07          0.256        0.924
  WS02006252           JUNCTION        0.54          1.100        0.000
  WS02006256           JUNCTION        5.32          2.050        0.000
  YS02001580           JUNCTION        0.01          0.032        0.418
  YS02001586           JUNCTION        0.12          0.451        0.059
  YS02001590           JUNCTION        0.22          0.750        0.000
  YS02001593           JUNCTION        0.22          0.756        0.084
  YS02001596           JUNCTION        0.32          0.991        0.079
  YS02001600           JUNCTION        0.41          1.190        0.000
  YS02001601           JUNCTION        0.68          1.440        0.000
  YS02001602           JUNCTION        0.59          1.270        0.000
  YS02001605           JUNCTION        0.55          1.055        0.125
  YS02001607           JUNCTION        0.14          0.322        0.358
  YS02001610           JUNCTION        0.17          0.352        0.328
  YS02001613           JUNCTION        0.12          0.255        0.445
  YS02001616           JUNCTION        0.07          0.125        0.485
  YS02001619           JUNCTION        0.05          0.087        0.523
  YS02001622           JUNCTION        0.03          0.130        0.490
  YS02001625           JUNCTION        0.25          0.303        0.477
  YS02001633           JUNCTION        0.26          0.289        0.771
  YS02001641           JUNCTION        0.15          0.111        0.989
  YS02001644           JUNCTION        0.09          0.044        0.876
  YS02001907           JUNCTION        0.21          0.131        0.819
  YS02006553           JUNCTION        0.22          0.135        1.055
  YS02006556           JUNCTION        0.11          0.053        1.297
  YS02006558           JUNCTION        0.09          0.031        1.369
  YS02163301           JUNCTION        0.25          0.292        0.738
  YS02163601           JUNCTION        0.29          0.259        0.821
  YS02164001           JUNCTION        0.18          0.139        0.961
  
  
  *********************
  Node Flooding Summary
  *********************
  
  Flooding refers to all water that overflows a node, whether it ponds or not.
  --------------------------------------------------------------------------
                                                             Total   Maximum
                                 Maximum   Time of Max       Flood    Ponded
                        Hours       Rate    Occurrence      Volume     Depth
  Node                 Flooded       LPS   days hr:min    10^6 ltr    Meters
  --------------------------------------------------------------------------
  WS02006112              0.01   1405.86      0  00:00       0.047     0.000
  WS02006242              0.01     64.09      0  02:50       0.000     0.000
  WS02006243              0.01     52.71      0  03:00       0.000     0.000
  WS02006249              0.07     79.72      0  02:01       0.016     0.000
  WS02006252              0.01    121.32      0  01:55       0.000     0.000
  WS02006256              0.48    288.42      0  02:20       0.125     0.000
  YS02001590              0.01      4.90      0  01:47       0.000     0.000
  YS02001600              0.01      3.15      0  01:47       0.000     0.000
  YS02001601              0.04     26.36      0  01:46       0.002     0.000
  YS02001602              0.01      5.80      0  01:38       0.000     0.000
  
  
  **********************
  Storage Volume Summary
  **********************
  
  --------------------------------------------------------------------------------------------------
                         Average     Avg  Evap Exfil       Maximum     Max    Time of Max    Maximum
                          Volume    Pcnt  Pcnt  Pcnt        Volume    Pcnt     Occurrence    Outflow
  Storage Unit           1000 m3    Full  Loss  Loss       1000 m3    Full    days hr:min        LPS
  --------------------------------------------------------------------------------------------------
  CC-storage               1.831      29     0     0         2.444      38       0  02:25    1766.00
  JK-storage               0.072      25     0     0         0.165      57       0  02:10    2300.00
  
  
  ***********************
  Outfall Loading Summary
  ***********************
  
  -----------------------------------------------------------
                         Flow       Avg       Max       Total
                         Freq      Flow      Flow      Volume
  Outfall Node           Pcnt       LPS       LPS    10^6 ltr
  -----------------------------------------------------------
  CC-1                  35.31    683.00    683.00       2.318
  CC-2                  20.13    683.00    683.00       1.525
  JK-1                   7.30   1000.00   1000.00       0.771
  JK-2                   3.05   1000.00   1000.00       0.392
  WSC                   99.99    168.65    479.64       2.885
  -----------------------------------------------------------
  System                33.16   3534.65    479.64       7.890
  
  
  ********************
  Link Flow Summary
  ********************
  
  -----------------------------------------------------------------------------
                                 Maximum  Time of Max   Maximum    Max/    Max/
                                  |Flow|   Occurrence   |Veloc|    Full    Full
  Link                 Type          LPS  days hr:min     m/sec    Flow   Depth
  -----------------------------------------------------------------------------
  1                    CONDUIT    479.64     0  02:12      2.71    0.17    0.28
  WS02003060WS02003069 CONDUIT    486.90     0  02:10      1.60    0.19    0.31
  WS02003066WSF200     CONDUIT    468.12     0  02:09      2.75    0.08    0.21
  WS02003067WS02003066 CONDUIT    468.28     0  02:09      1.12    0.15    0.40
  WS02003069WS02003072 CONDUIT    483.47     0  02:10      1.32    0.23    0.36
  WS02003072WS02003073 CONDUIT    480.88     0  02:11      1.37    1.04    0.35
  WS02004401WS02004402 CONDUIT   1248.69     0  00:01      2.52    1.50    0.85
  WS02004402WS02004403 CONDUIT    929.44     0  00:01      2.21    1.34    0.88
  WS02004403WS02004404 CONDUIT    877.02     0  00:01      2.01    0.63    0.93
  WS02004404WS02004405 CONDUIT    827.31     0  00:01      2.30    8.11    0.95
  WS02004405WS02004406 CONDUIT    768.45     0  00:02      2.19    1.52    0.94
  WS02004406WS02004407 CONDUIT    503.67     0  02:07      1.00    0.23    0.61
  WS02004407WS02004409 CONDUIT    501.07     0  02:07      2.06    0.18    0.45
  WS02004409WS02004410 CONDUIT    490.45     0  02:07      1.39    0.63    0.62
  WS02004410WS02004411 CONDUIT    482.74     0  02:08      1.32    0.66    0.64
  WS02004411WS02004412 CONDUIT    476.61     0  02:08      1.28    0.68    0.65
  WS02004412WS02004413 CONDUIT    472.06     0  02:08      1.25    0.32    0.74
  WS02004413WS02003067 CONDUIT    467.20     0  02:09      1.03    0.20    0.56
  WS02006109WS02006110 CONDUIT   1446.81     0  00:00      2.88    2.78    1.00
  WS02006110WS02006113 CONDUIT    557.23     0  02:01      1.34    0.51    1.00
  WS02006111WS02006112 CONDUIT   2307.30     0  00:00      9.18    1.10    1.00
  WS02006112WS02006115 CONDUIT    953.54     0  00:00      1.24    0.56    1.00
  WS02006113WS02006111 CONDUIT   1180.41     0  00:00      2.46    1.41    1.00
  WS02006115WS02006116 CONDUIT   1264.47     0  00:00      1.74    1.62    1.00
  WS02006116WS02004401 CONDUIT   1786.04     0  00:00      2.94    2.46    0.83
  WS02006228WS02006109 CONDUIT    869.18     0  00:00      1.91    3.80    1.00
  WS02006229WS02006228 CONDUIT    543.69     0  02:02      1.08    1.80    1.00
  WS02006230WS02006229 CONDUIT    696.39     0  00:00      1.89   15.50    1.00
  WS02006231WS02006230 CONDUIT    531.06     0  02:01      1.91    8.06    1.00
  WS02006232WS02006231 CONDUIT    537.16     0  02:01      1.80    1.13    1.00
  WS02006234WS02006232 CONDUIT    537.54     0  02:01      1.40    1.09    1.00
  WS02006235WS02006234 CONDUIT    538.72     0  02:01      1.40    5.68    1.00
  WS02006238WS02006235 CONDUIT    392.72     0  02:05      1.55    0.88    1.00
  WS02006239WS02006238 CONDUIT    393.45     0  02:05      1.02    1.26    1.00
  WS02006240WS02006239 CONDUIT    388.72     0  02:05      1.08    1.22    1.00
  WS02006242WS02006240 CONDUIT    389.29     0  02:24      1.04    1.55    1.00
  WS02006243WS02006242 CONDUIT    391.68     0  02:24      1.16    0.84    1.00
  WS02006245WS02006243 CONDUIT    391.71     0  01:57      1.24    1.16    1.00
  WS02006247WS02006245 CONDUIT    404.07     0  02:24      1.22    3.20    1.00
  WS02006248WS02006247 CONDUIT    407.42     0  02:24      1.27    0.89    1.00
  WS02006249WS02006248 CONDUIT    415.50     0  02:24      1.29    2.28    1.00
  WS02006251WS02006249 CONDUIT    452.52     0  03:10      1.94    1.30    1.00
  WS02006252WS02006251 CONDUIT    406.35     0  01:55     20.97    1.49    1.00
  WS02006256WS02006235 CONDUIT    289.17     0  01:40      4.23    3.06    1.00
  WSF200WS02003060     CONDUIT    470.46     0  02:09      1.99    0.10    0.26
  YS02001580YS02001583 CONDUIT     48.16     0  01:44      0.47    0.19    0.98
  YS02001583YS02001586 CONDUIT     70.14     0  01:43      0.31    0.11    0.99
  YS02001586YS02001590 CONDUIT    217.29     0  01:47      1.29    0.38    1.00
  YS02001590YS02001593 CONDUIT    210.88     0  01:50      1.02    1.32    1.00
  YS02001593YS02001596 CONDUIT    210.43     0  01:52      1.68    0.33    1.00
  YS02001596YS02001600 CONDUIT    210.45     0  01:52      1.17    0.41    1.00
  YS02001600YS02001601 CONDUIT    210.46     0  01:52      0.74    0.36    1.00
  YS02001601YS02001602 CONDUIT    519.14     0  01:47      1.84    1.88    1.00
  YS02001602YS02001605 CONDUIT    519.14     0  01:47      1.84   10.99    1.00
  YS02001605YS02001607 CONDUIT    519.14     0  01:47      1.84    2.85    1.00
  YS02001607YS02001610 CONDUIT    521.20     0  01:47      0.73    0.50    1.00
  YS02001610YS02001613 CONDUIT    521.39     0  01:47      0.69    0.60    1.00
  YS02001613YS02001616 CONDUIT    520.88     0  01:47      0.73    0.45    1.00
  YS02001616YS02001619 CONDUIT    524.64     0  01:47      0.77    0.91    1.00
  YS02001619YS02001622 CONDUIT    853.63     0  01:44      1.45    1.26    1.00
  YS02001622YS02001625 CONDUIT    843.28     0  01:45      1.07    0.45    1.00
  YS02001625YS02001629 CONDUIT    843.36     0  01:45      1.10    0.40    0.96
  YS02001629YS02163301 CONDUIT    848.34     0  01:46      1.08    1.04    1.00
  YS02001633YS02163601 CONDUIT   1102.57     0  01:45      1.40    1.16    1.00
  YS02001641YS02001644 CONDUIT   1103.32     0  01:45      1.40    3.57    1.00
  YS02001644YS02001647 CONDUIT   1320.19     0  01:45      1.89    0.78    0.83
  YS02001647YS02001649 CONDUIT   1323.05     0  01:45      2.27    0.70    0.70
  YS02001649YS02001757 CONDUIT   1508.57     0  01:45      2.47    0.92    0.73
  YS02001652YS02001649 CONDUIT    233.75     0  01:39      1.11    0.12    0.63
  YS02001655YS02001652 CONDUIT    250.10     0  01:41      1.75    0.12    0.38
  YS02001658YS02001655 CONDUIT    243.78     0  01:40      1.84    0.10    0.23
  YS02001661YS02001658 CONDUIT    243.94     0  01:40      1.99    0.10    0.21
  YS02001664YS02001661 CONDUIT    244.17     0  01:40      1.76    0.08    0.23
  YS02001745YS02001748 CONDUIT    163.84     0  01:39      1.85    0.06    0.17
  YS02001748YS02001751 CONDUIT    164.11     0  01:39      1.55    0.08    0.19
  YS02001751YS02001754 CONDUIT    164.03     0  01:40      1.58    0.08    0.25
  YS02001754YS02001757 CONDUIT    168.56     0  01:42      0.83    0.07    0.55
  YS02001757CaochengTiaoxuchi CONDUIT   2025.07     0  01:45      3.51    0.88    0.70
  YS02001759YS02001757 CONDUIT    468.54     0  01:41      1.27    0.33    0.68
  YS02001762YS02001759 CONDUIT    261.18     0  01:41      0.67    0.30    0.62
  YS02001765YS02001762 CONDUIT    274.25     0  01:41      0.80    0.26    0.58
  YS02001767YS02001765 CONDUIT    286.15     0  01:41      0.93    0.36    0.54
  YS02001770YS02001767 CONDUIT    298.36     0  01:41      0.90    1.18    0.53
  YS02001774YS02001770 CONDUIT     44.73     0  01:36      0.22    0.03    0.55
  YS02001779YS02001774 CONDUIT     16.53     0  01:37      0.11    0.01    0.47
  YS02001783YS02001784 CONDUIT    764.94     0  01:46      1.65    1.05    0.87
  YS02001784YS02001785 CONDUIT    763.68     0  01:46      1.78    1.78    0.79
  YS02001786YS02001788 CONDUIT    763.38     0  01:46      2.23    1.47    0.64
  YS02001788YS02001790 CONDUIT    763.71     0  01:47      2.33    0.56    0.62
  YS02001790YS02001791 CONDUIT    790.07     0  01:47      2.82    0.86    0.55
  YS02001791YS02001793 CONDUIT    765.72     0  01:47      5.77    0.33    0.31
  YS02001793JiankangQianchi CONDUIT    765.43     0  01:47      1.61    0.06    0.58
  YS02001882YS02001884 CONDUIT     33.96     0  01:41      0.19    0.04    0.74
  YS02001884YS02001887 CONDUIT     91.71     0  01:40      0.15    0.12    0.84
  YS02001887YS02001890 CONDUIT    235.07     0  01:42      0.42    0.40    0.89
  YS02001890YS02001895 CONDUIT    219.99     0  01:43      0.45    0.10    0.81
  YS02001895YS02001898 CONDUIT    220.52     0  01:43      0.70    0.38    0.68
  YS02001898YS02001901 CONDUIT    212.99     0  01:48      0.54    0.14    0.76
  YS02001901YS02001904 CONDUIT    209.99     0  01:42      0.33    0.33    0.81
  YS02001904YS02001907 CONDUIT    217.71     0  01:50      0.30    0.08    0.90
  YS02001907YS02006553 CONDUIT    559.06     0  01:49      0.62    0.66    1.00
  YS02001910YS02001907 CONDUIT    376.13     0  01:45      0.49    0.21    0.96
  YS02001915YS02001910 CONDUIT    385.84     0  01:45      0.98    0.19    0.82
  YS02001918YS02001915 CONDUIT    150.00     0  01:50      0.42    0.08    0.54
  YS02001920YS02001918 CONDUIT    129.22     0  01:45      0.73    0.12    0.41
  YS02001923YS02001920 CONDUIT    127.05     0  01:45      0.82    0.06    0.30
  YS02001926YS02001923 CONDUIT    122.23     0  01:43      0.83    0.17    0.24
  YS02001929YS02001926 CONDUIT    122.46     0  01:43      0.91    0.06    0.23
  YS02006553YS02006556 CONDUIT    559.63     0  01:49      0.71    0.48    1.00
  YS02006556YS02006558 CONDUIT    560.50     0  01:49      0.71    0.44    1.00
  YS02006558YS02006561 CONDUIT    764.86     0  01:46      3.14    1.69    0.82
  YS02006561YS02001783 CONDUIT    765.66     0  01:46      2.12    0.40    0.68
  YS02163301YS02001633 CONDUIT    848.42     0  01:46      1.08    0.80    1.00
  YS02163601YS02164001 CONDUIT   1102.32     0  01:45      1.40    0.98    1.00
  YS02164001YS02001641 CONDUIT   1102.70     0  01:45      1.40    1.51    1.00
  CC-R1                PUMP       683.00     0  00:20              1.00
  CC-R2                PUMP       683.00     0  00:20              1.00
  CC-S1                PUMP       200.00     0  01:35              1.00
  CC-S2                PUMP       200.00     0  00:20              1.00
  JK-R1                PUMP      1000.00     0  01:45              1.00
  JK-R2                PUMP      1000.00     0  00:05              1.00
  JK-S                 PUMP       300.00     0  00:10              1.00
  
  
  ***************************
  Flow Classification Summary
  ***************************
  
  -------------------------------------------------------------------------------------
                      Adjusted    ---------- Fraction of Time in Flow Class ---------- 
                       /Actual         Up    Down  Sub   Sup   Up    Down  Norm  Inlet 
  Conduit               Length    Dry  Dry   Dry   Crit  Crit  Crit  Crit  Ltd   Ctrl  
  -------------------------------------------------------------------------------------
  1                       1.00   0.00  0.00  0.00  0.00  1.00  0.00  0.00  0.45  0.00
  WS02003060WS02003069    1.00   0.00  0.00  0.00  0.97  0.03  0.00  0.00  0.86  0.00
  WS02003066WSF200        1.00   0.01  0.00  0.00  0.00  0.99  0.00  0.00  0.95  0.00
  WS02003067WS02003066    1.00   0.01  0.00  0.00  0.99  0.00  0.00  0.00  0.00  0.00
  WS02003069WS02003072    1.00   0.00  0.00  0.00  1.00  0.00  0.00  0.00  0.94  0.00
  WS02003072WS02003073    1.00   0.00  0.00  0.00  0.00  0.00  0.00  1.00  0.00  0.00
  WS02004401WS02004402    1.00   0.00  0.00  0.00  1.00  0.00  0.00  0.00  0.00  0.00
  WS02004402WS02004403    1.00   0.00  0.00  0.00  1.00  0.00  0.00  0.00  0.00  0.00
  WS02004403WS02004404    1.00   0.00  0.00  0.00  1.00  0.00  0.00  0.00  0.00  0.00
  WS02004404WS02004405    1.00   0.00  0.00  0.00  1.00  0.00  0.00  0.00  0.01  0.00
  WS02004405WS02004406    1.00   0.00  0.00  0.00  1.00  0.00  0.00  0.00  0.00  0.00
  WS02004406WS02004407    1.00   0.00  0.00  0.00  1.00  0.00  0.00  0.00  0.00  0.00
  WS02004407WS02004409    1.00   0.00  0.00  0.00  0.99  0.00  0.00  0.00  0.99  0.00
  WS02004409WS02004410    1.00   0.00  0.00  0.00  1.00  0.00  0.00  0.00  0.00  0.00
  WS02004410WS02004411    1.00   0.00  0.00  0.00  1.00  0.00  0.00  0.00  0.00  0.00
  WS02004411WS02004412    1.00   0.00  0.00  0.00  1.00  0.00  0.00  0.00  0.00  0.00
  WS02004412WS02004413    1.00   0.00  0.00  0.00  0.99  0.00  0.00  0.00  0.00  0.00
  WS02004413WS02003067    1.00   0.00  0.00  0.00  0.00  0.00  0.99  0.00  0.00  0.00
  WS02006109WS02006110    1.00   0.00  0.00  0.00  1.00  0.00  0.00  0.00  0.00  0.00
  WS02006110WS02006113    1.00   0.00  0.00  0.00  1.00  0.00  0.00  0.00  0.00  0.00
  WS02006111WS02006112    1.00   0.00  0.00  0.00  1.00  0.00  0.00  0.00  1.00  0.00
  WS02006112WS02006115    1.00   0.00  0.00  0.00  1.00  0.00  0.00  0.00  0.00  0.00
  WS02006113WS02006111    1.00   0.00  0.00  0.00  0.00  1.00  0.00  0.00  0.08  0.00
  WS02006115WS02006116    1.00   0.00  0.00  0.00  1.00  0.00  0.00  0.00  0.00  0.00
  WS02006116WS02004401    1.00   0.00  0.00  0.00  1.00  0.00  0.00  0.00  0.00  0.00
  WS02006228WS02006109    1.00   0.00  0.00  0.00  1.00  0.00  0.00  0.00  0.00  0.00
  WS02006229WS02006228    1.00   0.00  0.00  0.00  1.00  0.00  0.00  0.00  0.00  0.00
  WS02006230WS02006229    1.00   0.00  0.00  0.00  1.00  0.00  0.00  0.00  0.02  0.00
  WS02006231WS02006230    1.00   0.00  0.00  0.00  0.19  0.00  0.81  0.00  0.00  0.00
  WS02006232WS02006231    1.00   0.00  0.00  0.00  0.98  0.00  0.02  0.00  0.00  0.00
  WS02006234WS02006232    1.00   0.00  0.00  0.00  1.00  0.00  0.00  0.00  0.13  0.00
  WS02006235WS02006234    1.00   0.00  0.00  0.00  0.84  0.00  0.15  0.00  0.00  0.00
  WS02006238WS02006235    1.00   0.00  0.00  0.00  1.00  0.00  0.00  0.00  0.00  0.00
  WS02006239WS02006238    1.00   0.00  0.00  0.00  1.00  0.00  0.00  0.00  0.32  0.00
  WS02006240WS02006239    1.00   0.01  0.00  0.00  0.73  0.00  0.00  0.26  0.03  0.00
  WS02006242WS02006240    1.00   0.01  0.02  0.00  0.94  0.00  0.02  0.00  0.02  0.00
  WS02006243WS02006242    1.00   0.03  0.00  0.00  0.95  0.00  0.00  0.02  0.68  0.00
  WS02006245WS02006243    1.00   0.03  0.00  0.00  0.81  0.00  0.00  0.16  0.01  0.00
  WS02006247WS02006245    1.00   0.02  0.00  0.00  0.92  0.00  0.00  0.05  0.00  0.00
  WS02006248WS02006247    1.00   0.02  0.00  0.00  0.95  0.00  0.00  0.03  0.55  0.00
  WS02006249WS02006248    1.00   0.02  0.00  0.00  0.65  0.00  0.33  0.00  0.00  0.00
  WS02006251WS02006249    1.00   0.02  0.00  0.00  0.97  0.01  0.00  0.00  0.66  0.00
  WS02006252WS02006251    1.00   0.02  0.33  0.00  0.01  0.00  0.64  0.00  0.00  0.00
  WS02006256WS02006235    1.00   0.00  0.00  0.00  0.98  0.02  0.00  0.00  0.01  0.00
  WSF200WS02003060        1.00   0.00  0.01  0.00  0.35  0.64  0.00  0.00  0.80  0.00
  YS02001580YS02001583    1.00   0.21  0.45  0.00  0.34  0.00  0.00  0.00  0.76  0.00
  YS02001583YS02001586    1.00   0.33  0.18  0.00  0.49  0.00  0.01  0.00  0.76  0.00
  YS02001586YS02001590    1.00   0.16  0.00  0.00  0.59  0.03  0.00  0.23  0.31  0.00
  YS02001590YS02001593    1.00   0.16  0.01  0.00  0.12  0.00  0.71  0.00  0.00  0.00
  YS02001593YS02001596    1.00   0.16  0.00  0.00  0.14  0.01  0.00  0.69  0.01  0.00
  YS02001596YS02001600    1.00   0.17  0.00  0.00  0.27  0.05  0.00  0.52  0.05  0.00
  YS02001600YS02001601    1.00   0.16  0.01  0.00  0.83  0.00  0.00  0.00  0.67  0.00
  YS02001601YS02001602    1.00   0.16  0.01  0.00  0.83  0.00  0.00  0.00  0.00  0.00
  YS02001602YS02001605    1.00   0.17  0.00  0.00  0.83  0.00  0.00  0.00  0.00  0.00
  YS02001605YS02001607    1.00   0.17  0.00  0.00  0.83  0.00  0.00  0.00  0.00  0.00
  YS02001607YS02001610    1.00   0.16  0.01  0.00  0.83  0.00  0.00  0.00  0.02  0.00
  YS02001610YS02001613    1.00   0.16  0.00  0.00  0.84  0.00  0.00  0.00  0.02  0.00
  YS02001613YS02001616    1.00   0.16  0.00  0.00  0.84  0.00  0.00  0.00  0.01  0.00
  YS02001616YS02001619    1.00   0.16  0.00  0.00  0.84  0.00  0.00  0.00  0.00  0.00
  YS02001619YS02001622    1.00   0.16  0.00  0.00  0.84  0.00  0.00  0.00  0.39  0.00
  YS02001622YS02001625    1.00   0.16  0.00  0.00  0.84  0.00  0.00  0.00  0.06  0.00
  YS02001625YS02001629    1.00   0.16  0.03  0.00  0.19  0.00  0.62  0.00  0.00  0.00
  YS02001629YS02163301    1.00   0.18  0.00  0.00  0.82  0.00  0.00  0.00  0.00  0.00
  YS02001633YS02163601    1.00   0.16  0.00  0.00  0.84  0.00  0.00  0.00  0.02  0.00
  YS02001641YS02001644    1.00   0.16  0.00  0.00  0.84  0.00  0.00  0.00  0.00  0.00
  YS02001644YS02001647    1.00   0.16  0.03  0.00  0.82  0.00  0.00  0.00  0.00  0.00
  YS02001647YS02001649    1.00   0.17  0.01  0.00  0.32  0.50  0.00  0.00  0.62  0.00
  YS02001649YS02001757    1.00   0.00  0.17  0.00  0.28  0.55  0.00  0.00  0.30  0.00
  YS02001652YS02001649    1.00   0.17  0.00  0.00  0.81  0.02  0.00  0.00  0.69  0.00
  YS02001655YS02001652    1.00   0.17  0.00  0.00  0.23  0.03  0.00  0.57  0.08  0.00
  YS02001658YS02001655    1.00   0.17  0.00  0.00  0.26  0.57  0.00  0.00  0.80  0.00
  YS02001661YS02001658    1.00   0.17  0.00  0.00  0.20  0.63  0.00  0.00  0.79  0.00
  YS02001664YS02001661    1.00   0.16  0.00  0.00  0.67  0.17  0.00  0.00  0.87  0.00
  YS02001745YS02001748    1.00   0.16  0.00  0.00  0.00  0.00  0.00  0.84  0.00  0.00
  YS02001748YS02001751    1.00   0.16  0.00  0.00  0.30  0.54  0.00  0.00  0.72  0.00
  YS02001751YS02001754    1.00   0.16  0.00  0.00  0.11  0.01  0.00  0.71  0.04  0.00
  YS02001754YS02001757    1.00   0.00  0.16  0.00  0.83  0.01  0.00  0.00  0.80  0.00
  YS02001757CaochengTiaoxuchi    1.00   0.00  0.00  0.00  0.88  0.12  0.00  0.00  0.93  0.00
  YS02001759YS02001757    1.00   0.00  0.16  0.00  0.83  0.01  0.00  0.00  0.62  0.00
  YS02001762YS02001759    1.00   0.16  0.00  0.00  0.84  0.00  0.00  0.00  0.05  0.00
  YS02001765YS02001762    1.00   0.16  0.00  0.00  0.84  0.00  0.00  0.00  0.68  0.00
  YS02001767YS02001765    1.00   0.16  0.00  0.00  0.84  0.00  0.00  0.00  0.00  0.00
  YS02001770YS02001767    1.00   0.16  0.00  0.00  0.84  0.00  0.00  0.00  0.00  0.00
  YS02001774YS02001770    1.00   0.17  0.00  0.00  0.69  0.00  0.15  0.00  0.03  0.00
  YS02001779YS02001774    1.00   0.17  0.32  0.00  0.51  0.00  0.00  0.00  0.70  0.00
  YS02001783YS02001784    1.00   0.19  0.00  0.00  0.81  0.00  0.00  0.00  0.60  0.00
  YS02001784YS02001785    1.00   0.19  0.00  0.00  0.81  0.00  0.00  0.00  0.45  0.00
  YS02001786YS02001788    1.00   0.19  0.00  0.00  0.29  0.52  0.00  0.00  0.00  0.00
  YS02001788YS02001790    1.00   0.19  0.00  0.00  0.15  0.65  0.00  0.00  0.72  0.00
  YS02001790YS02001791    1.00   0.19  0.00  0.00  0.02  0.78  0.00  0.00  0.14  0.00
  YS02001791YS02001793    1.00   0.19  0.00  0.00  0.00  0.80  0.00  0.00  0.00  0.00
  YS02001793JiankangQianchi    1.00   0.00  0.20  0.00  0.80  0.00  0.00  0.00  0.80  0.00
  YS02001882YS02001884    1.00   0.18  0.00  0.00  0.82  0.00  0.00  0.00  0.00  0.00
  YS02001884YS02001887    1.00   0.17  0.01  0.00  0.82  0.00  0.00  0.00  0.00  0.00
  YS02001887YS02001890    1.00   0.16  0.00  0.00  0.83  0.00  0.01  0.00  0.00  0.00
  YS02001890YS02001895    1.00   0.16  0.02  0.00  0.82  0.00  0.00  0.00  0.00  0.00
  YS02001895YS02001898    1.00   0.18  0.00  0.00  0.81  0.00  0.01  0.00  0.00  0.00
  YS02001898YS02001901    1.00   0.18  0.00  0.00  0.81  0.00  0.00  0.00  0.00  0.00
  YS02001901YS02001904    1.00   0.18  0.00  0.00  0.81  0.00  0.00  0.00  0.00  0.00
  YS02001904YS02001907    1.00   0.16  0.03  0.00  0.81  0.00  0.00  0.00  0.00  0.00
  YS02001907YS02006553    1.00   0.16  0.01  0.00  0.83  0.00  0.00  0.00  0.01  0.00
  YS02001910YS02001907    1.00   0.16  0.00  0.00  0.83  0.00  0.00  0.01  0.03  0.00
  YS02001915YS02001910    1.00   0.16  0.00  0.00  0.83  0.01  0.00  0.00  0.02  0.00
  YS02001918YS02001915    1.00   0.16  0.03  0.00  0.82  0.00  0.00  0.00  0.77  0.00
  YS02001920YS02001918    1.00   0.17  0.01  0.00  0.82  0.00  0.00  0.00  0.00  0.00
  YS02001923YS02001920    1.00   0.17  0.00  0.00  0.83  0.00  0.00  0.00  0.84  0.00
  YS02001926YS02001923    1.00   0.16  0.01  0.00  0.00  0.00  0.83  0.00  0.00  0.00
  YS02001929YS02001926    1.00   0.16  0.00  0.00  0.84  0.00  0.00  0.00  0.87  0.00
  YS02006553YS02006556    1.00   0.17  0.00  0.00  0.83  0.00  0.00  0.00  0.02  0.00
  YS02006556YS02006558    1.00   0.16  0.01  0.00  0.84  0.00  0.00  0.00  0.00  0.00
  YS02006558YS02006561    1.00   0.19  0.00  0.00  0.00  0.81  0.00  0.00  0.18  0.00
  YS02006561YS02001783    1.00   0.19  0.00  0.00  0.18  0.64  0.00  0.00  0.75  0.00
  YS02163301YS02001633    1.00   0.16  0.02  0.00  0.82  0.00  0.00  0.00  0.00  0.00
  YS02163601YS02164001    1.00   0.16  0.01  0.00  0.83  0.00  0.00  0.00  0.02  0.00
  YS02164001YS02001641    1.00   0.16  0.01  0.00  0.83  0.00  0.00  0.00  0.00  0.00
  
  
  *************************
  Conduit Surcharge Summary
  *************************
  
  ----------------------------------------------------------------------------
                                                           Hours        Hours 
                         --------- Hours Full --------   Above Full   Capacity
  Conduit                Both Ends  Upstream  Dnstream   Normal Flow   Limited
  ----------------------------------------------------------------------------
  WS02003072WS02003073        0.01      0.01      0.01      0.04         0.01
  WS02004401WS02004402        0.01      0.01      0.01      0.01         0.01
  WS02004402WS02004403        0.01      0.01      0.01      0.02         0.01
  WS02004404WS02004405        0.01      0.01      0.01      1.91         0.01
  WS02004405WS02004406        0.01      0.01      0.01      0.01         0.01
  WS02006109WS02006110        0.06      0.06      0.21      0.07         0.01
  WS02006110WS02006113        0.01      0.01      0.17      0.01         0.01
  WS02006111WS02006112        0.01      0.01      1.08      0.01         0.01
  WS02006112WS02006115        0.01      0.01      0.03      0.01         0.01
  WS02006113WS02006111        0.01      0.01      0.01      0.01         0.01
  WS02006115WS02006116        0.01      0.01      0.01      0.01         0.01
  WS02006116WS02004401        0.01      0.01      0.01      0.02         0.01
  WS02006228WS02006109        0.13      0.21      0.14      1.26         0.13
  WS02006229WS02006228        0.13      0.14      0.13      0.79         0.12
  WS02006230WS02006229        0.41      0.68      0.42      2.37         0.41
  WS02006231WS02006230        0.05      0.05      0.07      2.00         0.01
  WS02006232WS02006231        0.07      0.07      0.21      0.10         0.01
  WS02006234WS02006232        0.12      0.12      0.21      0.09         0.09
  WS02006235WS02006234        0.11      0.11      0.13      1.79         0.01
  WS02006238WS02006235        0.14      0.14      0.21      0.01         0.01
  WS02006239WS02006238        0.14      0.18      0.14      0.40         0.10
  WS02006240WS02006239        0.11      0.13      0.12      0.35         0.08
  WS02006242WS02006240        0.12      0.12      0.33      0.69         0.01
  WS02006243WS02006242        0.12      0.12      0.24      0.01         0.01
  WS02006245WS02006243        0.09      0.11      0.09      0.30         0.03
  WS02006247WS02006245        0.09      0.12      0.09      1.60         0.09
  WS02006248WS02006247        0.09      0.09      0.11      0.01         0.01
  WS02006249WS02006248        0.08      0.08      0.11      1.54         0.01
  WS02006251WS02006249        0.10      0.11      0.11      0.44         0.09
  WS02006252WS02006251        0.51      0.51      0.53      0.51         0.01
  WS02006256WS02006235        1.84      1.89      5.23      0.51         0.01
  YS02001580YS02001583        0.01      0.01      0.01      0.01         0.01
  YS02001583YS02001586        0.01      0.01      0.12      0.01         0.01
  YS02001586YS02001590        0.13      0.13      0.22      0.01         0.01
  YS02001590YS02001593        0.22      0.22      0.24      0.20         0.01
  YS02001593YS02001596        0.23      0.23      0.32      0.01         0.01
  YS02001596YS02001600        0.35      0.35      0.41      0.01         0.01
  YS02001600YS02001601        0.46      0.46      0.68      0.01         0.01
  YS02001601YS02001602        0.59      0.59      0.72      0.44         0.01
  YS02001602YS02001605        0.55      0.55      0.59      1.59         0.01
  YS02001605YS02001607        0.51      0.55      0.51      0.64         0.51
  YS02001607YS02001610        0.14      0.14      0.17      0.01         0.01
  YS02001610YS02001613        0.12      0.12      0.17      0.01         0.01
  YS02001613YS02001616        0.07      0.07      0.12      0.01         0.01
  YS02001616YS02001619        0.05      0.05      0.07      0.01         0.01
  YS02001619YS02001622        0.03      0.05      0.03      0.24         0.03
  YS02001622YS02001625        0.03      0.03      0.25      0.01         0.01
  YS02001625YS02001629        0.01      0.01      0.25      0.01         0.01
  YS02001629YS02163301        0.24      0.24      0.25      0.09         0.09
  YS02001633YS02163601        0.26      0.26      0.29      0.15         0.15
  YS02001641YS02001644        0.09      0.15      0.09      0.76         0.09
  YS02001644YS02001647        0.01      0.01      0.09      0.01         0.01
  YS02001770YS02001767        0.01      0.01      0.01      0.11         0.01
  YS02001783YS02001784        0.01      0.01      0.01      0.14         0.01
  YS02001784YS02001785        0.01      0.01      0.01      0.33         0.01
  YS02001786YS02001788        0.01      0.01      0.01      0.24         0.01
  YS02001793JiankangQianchi        0.01      0.01      4.13      0.01         0.01
  YS02001904YS02001907        0.01      0.01      0.22      0.01         0.01
  YS02001907YS02006553        0.35      0.35      0.39      0.01         0.01
  YS02001910YS02001907        0.01      0.01      0.21      0.01         0.01
  YS02006553YS02006556        0.11      0.11      0.22      0.01         0.01
  YS02006556YS02006558        0.17      0.17      0.24      0.01         0.01
  YS02006558YS02006561        0.01      0.09      0.01      0.30         0.01
  YS02163301YS02001633        0.25      0.25      0.28      0.01         0.01
  YS02163601YS02164001        0.18      0.18      0.29      0.01         0.01
  YS02164001YS02001641        0.15      0.18      0.15      0.33         0.15
  
  
  ***************
  Pumping Summary
  ***************
  
  ---------------------------------------------------------------------------------------------------------
                                                  Min       Avg       Max     Total     Power    % Time Off
                        Percent   Number of      Flow      Flow      Flow    Volume     Usage    Pump Curve
  Pump                 Utilized   Start-Ups       LPS       LPS       LPS  10^6 ltr     Kw-hr    Low   High
  ---------------------------------------------------------------------------------------------------------
  CC-R1                   11.85          21      0.00    683.00    683.00     2.331     39.35    0.0  100.0
  CC-R2                    7.84          26      0.00    683.00    683.00     1.542     26.01    0.0  100.0
  CC-S1                   17.20          24      0.00    200.00    200.00     0.991      6.55    0.0    0.0
  CC-S2                   10.97          22      0.00    200.00    200.00     0.632      4.31    0.0    0.0
  JK-R1                    2.67           7      0.00   1000.00   1000.00     0.770      5.91    0.0    0.0
  JK-R2                    1.36          11      0.00   1000.00   1000.00     0.392      2.79    0.0    0.0
  JK-S                     5.97          30      0.00    300.00    300.00     0.515      9.79    0.0    0.0
  

  Analysis begun on:  Wed Sep  6 15:57:07 2023
  Analysis ended on:  Wed Sep  6 15:57:18 2023
  Total elapsed time: 00:00:11