
  OWA STORM WATER MANAGEMENT MODEL - VERSION v5.2.3 (OWA 2023-06-06)
  ------------------------------------------------------------

  WARNING 04: minimum elevation drop used for Conduit WS02004404WS02004405
  WARNING 03: negative offset ignored for Link YS02001904YS02001907
  
  ****************
  Analysis Options
  ****************
  Flow Units ............... LPS
  Process Models:
    Rainfall/Runoff ........ YES
    RDII ................... NO
    Snowmelt ............... NO
    Groundwater ............ NO
    Flow Routing ........... YES
    Ponding Allowed ........ NO
    Water Quality .......... NO
  Infiltration Method ...... HORTON
  Flow Routing Method ...... DYNWAVE
  Surcharge Method ......... EXTRAN
  Starting Date ............ 08/28/2015 08:00:00
  Ending Date .............. 08/28/2015 16:00:00
  Antecedent Dry Days ...... 8.0
  Report Time Step ......... 00:01:00
  Wet Time Step ............ 00:01:00
  Dry Time Step ............ 00:01:00
  Routing Time Step ........ 30.00 sec
  Variable Time Step ....... YES
  Maximum Trials ........... 8
  Number of Threads ........ 2
  Head Tolerance ........... 0.001500 m
  
  
  **************************        Volume         Depth
  Runoff Quantity Continuity     hectare-m            mm
  **************************     ---------       -------
  Initial LID Storage ......         0.049         1.488
  Total Precipitation ......         2.107        63.518
  Evaporation Loss .........         0.000         0.000
  Infiltration Loss ........         0.082         2.470
  Surface Runoff ...........         1.555        46.889
  Final Storage ............         0.519        15.656
  Continuity Error (%) .....        -0.015
  
  
  **************************        Volume        Volume
  Flow Routing Continuity        hectare-m      10^6 ltr
  **************************     ---------     ---------
  Dry Weather Inflow .......         0.025         0.251
  Wet Weather Inflow .......         1.555        15.549
  Groundwater Inflow .......         0.000         0.000
  RDII Inflow ..............         0.000         0.000
  External Inflow ..........         0.083         0.834
  External Outflow .........         1.699        16.992
  Flooding Loss ............         0.055         0.554
  Evaporation Loss .........         0.000         0.000
  Exfiltration Loss ........         0.000         0.000
  Initial Stored Volume ....         0.243         2.431
  Final Stored Volume ......         0.182         1.818
  Continuity Error (%) .....        -1.569
  
  
  *************************
  Highest Continuity Errors
  *************************
  Node YS02001583 (-3.67%)
  Node YS02001884 (2.65%)
  Node WS02006256 (-2.56%)
  Node YS02001774 (2.41%)
  
  
  ***************************
  Time-Step Critical Elements
  ***************************
  Link WS02006252WS02006251 (40.31%)
  Link WS02006238WS02006235 (14.86%)
  Link YS02006556YS02006558 (13.77%)
  Link WS02004404WS02004405 (9.22%)
  Link WS02003066WSF200 (5.54%)
  
  
  ********************************
  Highest Flow Instability Indexes
  ********************************
  Link WS02006113WS02006111 (39)
  Link YS02006558YS02006561 (29)
  Link WS02006111WS02006112 (17)
  Link WS02006256WS02006235 (14)
  Link WS02006238WS02006235 (11)
  
  
  *********************************
  Most Frequent Nonconverging Nodes
  *********************************
  Node CC-1 (7.19%)
  Node CC-2 (7.19%)
  Node JK-1 (7.19%)
  Node JK-2 (7.19%)
  Node WSC (7.19%)
  
  
  *************************
  Routing Time Step Summary
  *************************
  Minimum Time Step           :     0.01 sec
  Average Time Step           :     1.99 sec
  Maximum Time Step           :    30.00 sec
  % of Time in Steady State   :     0.00
  Average Iterations per Step :     2.78
  % of Steps Not Converging   :     7.19
  Time Step Frequencies       :
     30.000 - 13.228 sec      :     0.01 %
     13.228 -  5.833 sec      :     8.78 %
      5.833 -  2.572 sec      :    19.13 %
      2.572 -  1.134 sec      :    18.24 %
      1.134 -  0.500 sec      :    53.84 %
  
  
  ***************************
  Subcatchment Runoff Summary
  ***************************
  
  ------------------------------------------------------------------------------------------------------------------------------
                            Total      Total      Total      Total     Imperv       Perv      Total       Total     Peak  Runoff
                           Precip      Runon       Evap      Infil     Runoff     Runoff     Runoff      Runoff   Runoff   Coeff
  Subcatchment                 mm         mm         mm         mm         mm         mm         mm    10^6 ltr      LPS
  ------------------------------------------------------------------------------------------------------------------------------
  sub60                     63.52       0.00       0.00       1.47      42.21       4.41      46.63        0.61   116.97   0.734
  sub61                     63.52       0.00       0.00       2.27      42.18       6.56      48.74        0.89   170.20   0.767
  sub62                     63.52       0.00       0.00       1.00      44.96       3.00      47.96        1.31   239.06   0.755
  sub63                     63.52       0.00       0.00       4.16      36.12      10.92      47.05        1.07   194.70   0.741
  sub64                     63.52       0.00       0.00       2.00      41.13       5.43      46.56        1.12   196.68   0.733
  sub65                     63.52       0.00       0.00       1.83      44.39       4.95      49.34        1.36   232.79   0.777
  sub66                     63.52       0.00       0.00       4.79      34.93       9.82      44.74        2.09   347.01   0.704
  sub67                     63.52       0.00       0.00       0.99      46.10       3.11      49.21        0.92   180.16   0.775
  sub68                     63.52       0.00       0.00       1.74      40.71       5.03      45.74        1.26   234.79   0.720
  sub69                     63.52       0.00       0.00       1.62      42.70       5.92      48.63        1.80   301.91   0.766
  sub70                     63.52       0.00       0.00       5.28      34.21      12.40      46.61        1.35   213.47   0.734
  sub71                     63.52       0.00       0.00       0.93      40.84       2.71      43.55        1.14   200.07   0.686
  sub72                     63.52       0.00       0.00       0.88      44.11       2.52      46.63        0.64   106.38   0.734
  

  ***********************
  LID Performance Summary
  ***********************

  --------------------------------------------------------------------------------------------------------------------
                                         Total      Evap     Infil   Surface    Drain    Initial     Final  Continuity
                                        Inflow      Loss      Loss   Outflow   Outflow   Storage   Storage       Error
  Subcatchment      LID Control             mm        mm        mm        mm        mm        mm        mm           %
  --------------------------------------------------------------------------------------------------------------------
  sub60             GreenRoof            63.52      0.00      0.00      0.00      0.00      7.05     70.57        0.00
  sub61             GreenRoof            63.52      0.00      0.00      0.00      0.00      7.05     70.57        0.00
  sub62             GreenRoof            63.52      0.00      0.00      0.00      0.00      7.05     70.57        0.00
  sub63             GreenRoof            63.52      0.00      0.00      0.00      0.00      7.05     70.57        0.00
  sub64             GreenRoof            63.52      0.00      0.00      0.00      0.00      7.05     70.57        0.00
  sub65             GreenRoof            63.52      0.00      0.00      0.00      0.00      7.05     70.57        0.00
  sub66             GreenRoof            63.52      0.00      0.00      0.00      0.00      7.05     70.57        0.00
  sub67             GreenRoof            63.52      0.00      0.00      0.00      0.00      7.05     70.57        0.00
  sub68             GreenRoof            63.52      0.00      0.00      0.00      0.00      7.05     70.57        0.00
  sub69             GreenRoof            63.52      0.00      0.00      0.00      0.00      7.05     70.57        0.00
  sub70             GreenRoof            63.52      0.00      0.00      0.00      0.00      7.05     70.57        0.00
  sub71             GreenRoof            63.52      0.00      0.00      0.00      0.00      7.05     70.57        0.00
  sub72             GreenRoof            63.52      0.00      0.00      0.00      0.00      7.05     70.57        0.00
  
  ******************
  Node Depth Summary
  ******************
  
  ---------------------------------------------------------------------------------
                                 Average  Maximum  Maximum  Time of Max    Reported
                                   Depth    Depth      HGL   Occurrence   Max Depth
  Node                 Type       Meters   Meters   Meters  days hr:min      Meters
  ---------------------------------------------------------------------------------
  WS02003060           JUNCTION     0.22     0.38     5.32     0  02:25        0.38
  WS02003066           JUNCTION     0.19     0.30     5.85     0  02:24        0.30
  WS02003067           JUNCTION     0.50     0.70     6.02     0  02:24        0.70
  WS02003069           JUNCTION     0.25     0.43     5.01     0  02:25        0.43
  WS02003072           JUNCTION     0.31     0.50     4.87     0  02:26        0.50
  WS02003073           JUNCTION     0.17     0.30     4.36     0  02:26        0.30
  WS02004401           JUNCTION     0.59     0.85     6.85     0  02:21        0.85
  WS02004402           JUNCTION     0.62     0.88     6.84     0  02:22        0.88
  WS02004403           JUNCTION     0.65     0.89     6.82     0  02:22        0.89
  WS02004404           JUNCTION     0.72     0.96     6.81     0  02:22        0.96
  WS02004405           JUNCTION     0.72     0.96     6.81     0  02:22        0.96
  WS02004406           JUNCTION     0.73     0.96     6.79     0  02:22        0.96
  WS02004407           JUNCTION     0.17     0.30     6.61     0  02:22        0.30
  WS02004409           JUNCTION     0.38     0.67     6.44     0  02:23        0.67
  WS02004410           JUNCTION     0.41     0.68     6.40     0  02:23        0.68
  WS02004411           JUNCTION     0.43     0.69     6.37     0  02:23        0.69
  WS02004412           JUNCTION     0.45     0.70     6.34     0  02:24        0.70
  WS02004413           JUNCTION     0.62     0.86     6.33     0  02:24        0.86
  WS02006109           JUNCTION     0.65     1.65     8.26     0  02:41        1.65
  WS02006110           JUNCTION     0.66     1.43     8.02     0  02:41        1.43
  WS02006111           JUNCTION     0.18     0.90     7.60     0  00:00        0.40
  WS02006112           JUNCTION     0.75     2.68     8.56     0  00:00        1.14
  WS02006113           JUNCTION     0.27     1.40     8.29     0  00:00        0.46
  WS02006115           JUNCTION     0.47     1.65     7.79     0  00:00        0.86
  WS02006116           JUNCTION     0.56     1.06     7.10     0  00:00        0.83
  WS02006228           JUNCTION     0.64     1.51     8.16     0  02:41        1.51
  WS02006229           JUNCTION     0.61     1.40     8.09     0  02:31        1.40
  WS02006230           JUNCTION     0.61     1.51     8.26     0  02:40        1.17
  WS02006231           JUNCTION     0.42     1.30     8.42     0  02:40        0.93
  WS02006232           JUNCTION     0.56     1.77     8.81     0  01:55        1.16
  WS02006234           JUNCTION     0.48     1.96     9.12     0  01:55        1.21
  WS02006235           JUNCTION     0.52     2.00     9.16     0  01:55        1.32
  WS02006238           JUNCTION     0.55     2.10     9.25     0  01:55        1.36
  WS02006239           JUNCTION     0.51     2.03     9.24     0  01:55        1.36
  WS02006240           JUNCTION     0.48     1.87     9.16     0  01:55        1.33
  WS02006242           JUNCTION     0.55     1.55     8.82     0  01:55        1.39
  WS02006243           JUNCTION     0.46     1.41     8.83     0  01:55        1.36
  WS02006245           JUNCTION     0.46     1.41     8.90     0  02:36        1.41
  WS02006247           JUNCTION     0.48     1.37     8.87     0  02:36        1.37
  WS02006248           JUNCTION     0.44     1.10     8.69     0  02:05        1.10
  WS02006249           JUNCTION     0.47     1.09     8.69     0  02:05        1.09
  WS02006251           JUNCTION     0.46     1.34     9.01     0  02:05        1.12
  WS02006252           JUNCTION     0.34     1.50     9.74     0  00:20        0.68
  WS02006256           JUNCTION     1.02     2.35     9.28     0  00:09        2.35
  WSF200               JUNCTION     0.16     0.29     5.52     0  02:24        0.29
  YS02001580           JUNCTION     0.03     0.49     9.03     0  02:23        0.48
  YS02001583           JUNCTION     0.06     0.53     9.03     0  02:23        0.53
  YS02001586           JUNCTION     0.18     0.86     9.03     0  02:24        0.86
  YS02001590           JUNCTION     0.32     1.14     9.00     0  02:22        1.14
  YS02001593           JUNCTION     0.26     1.13     8.99     0  02:22        1.13
  YS02001596           JUNCTION     0.42     1.54     8.96     0  02:22        1.54
  YS02001600           JUNCTION     0.55     1.80     8.93     0  02:22        1.80
  YS02001601           JUNCTION     0.76     2.05     8.89     0  02:22        2.05
  YS02001602           JUNCTION     0.65     1.78     8.68     0  02:22        1.78
  YS02001605           JUNCTION     0.57     1.54     8.44     0  02:22        1.54
  YS02001607           JUNCTION     0.50     1.16     8.01     0  02:23        1.15
  YS02001610           JUNCTION     0.54     1.20     8.00     0  02:23        1.18
  YS02001613           JUNCTION     0.49     1.14     7.98     0  02:23        1.13
  YS02001616           JUNCTION     0.42     1.06     7.97     0  02:22        1.05
  YS02001619           JUNCTION     0.40     1.03     7.96     0  02:22        1.02
  YS02001622           JUNCTION     0.39     1.01     7.91     0  02:22        1.00
  YS02001625           JUNCTION     0.65     1.25     7.85     0  02:22        1.24
  YS02001629           JUNCTION     0.55     1.24     7.79     0  02:23        1.24
  YS02001633           JUNCTION     0.61     1.27     7.72     0  02:24        1.27
  YS02001641           JUNCTION     0.57     1.09     7.52     0  02:24        1.08
  YS02001644           JUNCTION     0.55     1.03     7.46     0  02:23        1.03
  YS02001647           JUNCTION     0.30     0.67     7.28     0  02:23        0.67
  YS02001649           JUNCTION     0.34     0.79     7.18     0  02:24        0.79
  YS02001652           JUNCTION     0.20     0.59     7.18     0  02:24        0.59
  YS02001655           JUNCTION     0.10     0.32     7.17     0  02:24        0.32
  YS02001658           JUNCTION     0.09     0.19     7.34     0  01:41        0.19
  YS02001661           JUNCTION     0.14     0.26     7.66     0  01:41        0.26
  YS02001664           JUNCTION     0.07     0.17     8.09     0  01:41        0.17
  YS02001745           JUNCTION     0.06     0.14     7.66     0  01:40        0.14
  YS02001748           JUNCTION     0.07     0.16     7.24     0  01:40        0.16
  YS02001751           JUNCTION     0.07     0.21     7.09     0  02:25        0.21
  YS02001754           JUNCTION     0.14     0.49     7.10     0  02:25        0.49
  YS02001757           JUNCTION     0.34     0.84     7.10     0  02:25        0.84
  YS02001759           JUNCTION     0.27     0.74     7.10     0  02:25        0.74
  YS02001762           JUNCTION     0.26     0.70     7.10     0  02:25        0.70
  YS02001765           JUNCTION     0.23     0.66     7.11     0  02:25        0.65
  YS02001767           JUNCTION     0.23     0.62     7.11     0  02:25        0.62
  YS02001770           JUNCTION     0.24     0.63     7.12     0  02:25        0.62
  YS02001774           JUNCTION     0.30     0.70     7.12     0  02:25        0.70
  YS02001779           JUNCTION     0.12     0.44     7.12     0  02:24        0.43
  YS02001783           JUNCTION     0.28     0.66     6.80     0  01:44        0.65
  YS02001784           JUNCTION     0.31     0.66     6.72     0  01:43        0.66
  YS02001786           JUNCTION     0.26     0.55     6.58     0  01:43        0.54
  YS02001788           JUNCTION     0.20     0.43     6.41     0  01:43        0.43
  YS02001790           JUNCTION     0.24     0.52     6.16     0  01:45        0.52
  YS02001791           JUNCTION     0.15     0.32     5.79     0  01:45        0.31
  YS02001793           JUNCTION     0.08     0.16     4.99     0  01:45        0.16
  YS02001882           JUNCTION     0.32     0.65     7.37     0  01:41        0.65
  YS02001884           JUNCTION     0.41     0.74     7.36     0  01:42        0.74
  YS02001887           JUNCTION     0.48     0.82     7.36     0  01:41        0.81
  YS02001890           JUNCTION     0.51     0.86     7.36     0  01:42        0.84
  YS02001895           JUNCTION     0.29     0.61     7.35     0  01:44        0.60
  YS02001898           JUNCTION     0.30     0.63     7.36     0  01:43        0.63
  YS02001901           JUNCTION     0.41     0.74     7.35     0  01:43        0.74
  YS02001904           JUNCTION     0.39     0.73     7.36     0  01:43        0.71
  YS02001907           JUNCTION     0.70     1.07     7.36     0  01:43        1.05
  YS02001910           JUNCTION     0.50     0.86     7.36     0  01:43        0.86
  YS02001915           JUNCTION     0.31     0.63     7.35     0  01:42        0.63
  YS02001918           JUNCTION     0.11     0.27     7.34     0  01:43        0.27
  YS02001920           JUNCTION     0.20     0.36     7.37     0  01:42        0.36
  YS02001923           JUNCTION     0.07     0.15     7.41     0  01:42        0.15
  YS02001926           JUNCTION     0.15     0.28     7.72     0  01:42        0.28
  YS02001929           JUNCTION     0.07     0.15     7.85     0  01:42        0.15
  YS02006553           JUNCTION     0.70     1.07     7.36     0  01:44        1.05
  YS02006556           JUNCTION     0.67     1.04     7.35     0  01:44        1.02
  YS02006558           JUNCTION     0.72     1.08     7.35     0  01:44        1.05
  YS02006561           JUNCTION     0.16     0.38     7.04     0  01:44        0.38
  YS02163301           JUNCTION     0.56     1.24     7.76     0  02:24        1.24
  YS02163601           JUNCTION     0.63     1.22     7.62     0  02:23        1.22
  YS02164001           JUNCTION     0.56     1.11     7.57     0  02:23        1.11
  CC-1                 OUTFALL      0.00     0.00     0.00     0  00:00        0.00
  CC-2                 OUTFALL      0.00     0.00     0.00     0  00:00        0.00
  JK-1                 OUTFALL      0.00     0.00     0.00     0  00:00        0.00
  JK-2                 OUTFALL      0.00     0.00     0.00     0  00:00        0.00
  WSC                  OUTFALL      0.17     0.30     0.97     0  02:27        0.30
  CC-storage           STORAGE      0.76     1.28     6.78     0  03:05        1.28
  JK-storage           STORAGE      1.64     4.20     5.00     0  01:39        4.12
  
  
  *******************
  Node Inflow Summary
  *******************
  
  -------------------------------------------------------------------------------------------------
                                  Maximum  Maximum                  Lateral       Total        Flow
                                  Lateral    Total  Time of Max      Inflow      Inflow     Balance
                                   Inflow   Inflow   Occurrence      Volume      Volume       Error
  Node                 Type           LPS      LPS  days hr:min    10^6 ltr    10^6 ltr     Percent
  -------------------------------------------------------------------------------------------------
  WS02003060           JUNCTION     16.53   553.18     0  02:25       0.476        4.94       0.051
  WS02003066           JUNCTION      0.00   536.48     0  02:24           0        4.47       0.032
  WS02003067           JUNCTION      0.00   536.46     0  02:24           0        4.47       0.095
  WS02003069           JUNCTION      0.32   553.32     0  02:25     0.00922        4.95       0.082
  WS02003072           JUNCTION      0.00   553.19     0  02:25           0        4.94       0.146
  WS02003073           JUNCTION      1.82   554.95     0  02:26      0.0524        4.99       0.121
  WS02004401           JUNCTION      0.00  1677.78     0  00:00           0        4.58       0.254
  WS02004402           JUNCTION      0.00  1171.33     0  00:01           0        4.57       0.249
  WS02004403           JUNCTION      0.00   884.75     0  00:01           0        4.56       0.242
  WS02004404           JUNCTION      0.16   832.59     0  00:01     0.00467        4.55       0.200
  WS02004405           JUNCTION      0.04   776.49     0  00:01      0.0011        4.54       0.280
  WS02004406           JUNCTION      0.00   711.76     0  00:02           0        4.53       0.486
  WS02004407           JUNCTION      0.00   537.39     0  02:22           0        4.51       0.027
  WS02004409           JUNCTION      0.00   537.15     0  02:22           0         4.5       0.063
  WS02004410           JUNCTION      0.00   536.93     0  02:23           0         4.5       0.104
  WS02004411           JUNCTION      0.00   536.85     0  02:23           0         4.5       0.133
  WS02004412           JUNCTION      0.00   536.64     0  02:23           0        4.49       0.171
  WS02004413           JUNCTION      0.00   536.61     0  02:24           0        4.48       0.310
  WS02006109           JUNCTION      1.23  1308.01     0  00:00      0.0354        4.51       0.145
  WS02006110           JUNCTION      0.00   563.52     0  02:40           0        4.48      -0.797
  WS02006111           JUNCTION      0.00  1176.04     0  00:00           0        4.51      -0.858
  WS02006112           JUNCTION      0.00  2307.30     0  00:00           0        4.55       0.004
  WS02006113           JUNCTION      0.00   579.16     0  02:31           0        4.47      -1.088
  WS02006115           JUNCTION      0.00   899.27     0  00:00           0        4.53      -0.706
  WS02006116           JUNCTION      0.00  1098.16     0  00:01           0        4.56      -0.504
  WS02006228           JUNCTION      0.00   560.54     0  02:40           0        4.45       0.076
  WS02006229           JUNCTION      0.00   559.80     0  02:40           0        4.44       0.205
  WS02006230           JUNCTION     10.28   581.29     0  02:40       0.296        4.43       0.055
  WS02006231           JUNCTION      0.00   572.59     0  02:40           0        4.12      -0.072
  WS02006232           JUNCTION      0.00   572.04     0  02:40           0        4.13       0.269
  WS02006234           JUNCTION      0.00   568.39     0  02:40           0        4.11      -0.305
  WS02006235           JUNCTION      0.00   561.62     0  02:40           0        4.22       0.400
  WS02006238           JUNCTION      0.00   427.69     0  02:35           0         3.4      -0.285
  WS02006239           JUNCTION      0.00   426.16     0  02:35           0        3.33      -0.191
  WS02006240           JUNCTION      0.00   425.25     0  03:26           0        3.29       0.000
  WS02006242           JUNCTION      0.00   424.75     0  03:26           0        3.28       0.052
  WS02006243           JUNCTION      0.00   424.19     0  03:26           0        3.27      -0.113
  WS02006245           JUNCTION      0.00   423.89     0  02:02           0        3.29       0.441
  WS02006247           JUNCTION      0.00   435.57     0  02:02           0        3.28      -0.033
  WS02006248           JUNCTION      0.00   441.89     0  02:01           0        3.28      -0.032
  WS02006249           JUNCTION      0.00   824.67     0  00:05           0        3.47       0.567
  WS02006251           JUNCTION      0.08   460.09     0  00:05     0.00222        3.45      -0.452
  WS02006252           JUNCTION      0.00   400.00     0  00:05           0        3.44      -0.405
  WS02006256           JUNCTION      0.00   300.00     0  00:15           0        1.18      -2.492
  WSF200               JUNCTION      0.00   536.51     0  02:24           0        4.46       0.012
  YS02001580           JUNCTION      0.00    11.43     0  02:18           0     0.00417       1.396
  YS02001583           JUNCTION      0.00    24.16     0  02:18           0      0.0159      -3.540
  YS02001586           JUNCTION    213.47   220.34     0  02:27        1.35        1.36       0.100
  YS02001590           JUNCTION      0.00   220.57     0  02:27           0        1.35      -0.039
  YS02001593           JUNCTION      0.00   220.60     0  02:27           0        1.35      -0.003
  YS02001596           JUNCTION      0.00   220.64     0  02:27           0        1.35      -0.023
  YS02001600           JUNCTION      0.00   220.59     0  02:27           0        1.35      -0.007
  YS02001601           JUNCTION    301.91   500.76     0  02:24         1.8        3.15       0.009
  YS02001602           JUNCTION      0.00   500.81     0  02:24           0        3.15       0.006
  YS02001605           JUNCTION      0.00   500.95     0  02:24           0        3.15       0.014
  YS02001607           JUNCTION      0.00   501.40     0  02:23           0        3.15       0.058
  YS02001610           JUNCTION      0.00   502.30     0  02:23           0        3.14       0.082
  YS02001613           JUNCTION      0.00   502.84     0  02:23           0        3.15       0.058
  YS02001616           JUNCTION      0.00   503.21     0  02:24           0        3.15       0.015
  YS02001619           JUNCTION    347.01   849.66     0  02:22        2.09        5.23      -0.003
  YS02001622           JUNCTION      0.00   851.02     0  02:23           0        5.22      -0.001
  YS02001625           JUNCTION      0.00   846.92     0  02:24           0        5.23       0.197
  YS02001629           JUNCTION      0.00   847.23     0  02:24           0        5.22       0.005
  YS02001633           JUNCTION    232.99  1071.14     0  02:23        1.36        6.59       0.049
  YS02001641           JUNCTION      0.00  1071.64     0  02:23           0        6.59       0.044
  YS02001644           JUNCTION    196.72  1257.05     0  02:23        1.12         7.7       0.041
  YS02001647           JUNCTION      0.00  1256.75     0  02:23           0        7.68       0.005
  YS02001649           JUNCTION      0.00  1431.73     0  02:22           0        8.75       0.006
  YS02001652           JUNCTION      0.00   194.51     0  01:41           0        1.07      -0.142
  YS02001655           JUNCTION      0.15   194.61     0  01:41     0.00443        1.07       0.103
  YS02001658           JUNCTION      0.00   194.50     0  01:41           0        1.07      -0.002
  YS02001661           JUNCTION      0.00   194.63     0  01:41           0        1.07       0.038
  YS02001664           JUNCTION    194.70   194.70     0  01:41        1.07        1.07      -0.012
  YS02001745           JUNCTION    116.98   116.98     0  01:40       0.613       0.613      -0.005
  YS02001748           JUNCTION      0.04   117.03     0  01:40      0.0013       0.614      -0.002
  YS02001751           JUNCTION      0.01   117.11     0  01:40    0.000317       0.614       0.128
  YS02001754           JUNCTION      0.26   117.85     0  01:40     0.00749       0.621      -0.185
  YS02001757           JUNCTION      0.00  1874.96     0  02:25           0        11.6       0.023
  YS02001759           JUNCTION    170.24   376.43     0  01:43       0.895        2.23      -0.011
  YS02001762           JUNCTION      0.00   218.59     0  01:44           0        1.33       0.015
  YS02001765           JUNCTION      0.00   224.38     0  01:43           0        1.33       0.018
  YS02001767           JUNCTION      0.54   225.23     0  01:43      0.0154        1.33       0.020
  YS02001770           JUNCTION    239.21   239.21     0  01:41        1.32        1.36      -0.016
  YS02001774           JUNCTION      0.00    54.73     0  01:06           0      0.0539       2.473
  YS02001779           JUNCTION      0.01    20.67     0  01:07    0.000144      0.0147       0.213
  YS02001783           JUNCTION      0.00   714.68     0  01:44           0           4       0.007
  YS02001784           JUNCTION      1.06   706.82     0  01:44      0.0305        4.03       0.013
  YS02001786           JUNCTION      0.06   700.96     0  01:44     0.00162        4.04       0.016
  YS02001788           JUNCTION      0.07   700.93     0  01:44     0.00204        4.04       0.008
  YS02001790           JUNCTION      0.15   702.74     0  01:44     0.00446        4.04       0.011
  YS02001791           JUNCTION      0.00   717.73     0  01:45           0        4.04       0.005
  YS02001793           JUNCTION      0.00   701.53     0  01:45           0        4.04       0.006
  YS02001882           JUNCTION      0.00    33.37     0  02:35           0      0.0495       1.492
  YS02001884           JUNCTION      0.00    62.87     0  01:13           0      0.0946       2.725
  YS02001887           JUNCTION    180.61   193.08     0  01:42       0.928        0.97       0.442
  YS02001890           JUNCTION      0.00   187.09     0  01:42           0        0.92       0.561
  YS02001895           JUNCTION      0.00   182.60     0  01:42           0       0.915       0.272
  YS02001898           JUNCTION      0.00   197.37     0  01:42           0       0.913      -0.028
  YS02001901           JUNCTION      0.00   207.00     0  01:43           0       0.918       0.375
  YS02001904           JUNCTION      0.00   191.73     0  01:44           0       0.927       0.309
  YS02001907           JUNCTION      0.00   492.00     0  01:43           0        2.79       0.636
  YS02001910           JUNCTION      0.00   355.79     0  01:44           0        1.86       0.389
  YS02001915           JUNCTION    200.09   313.51     0  01:42        1.14        1.86       0.083
  YS02001918           JUNCTION      0.00   112.45     0  01:42           0       0.725       0.043
  YS02001920           JUNCTION      2.87   109.03     0  01:42      0.0827       0.726       0.150
  YS02001923           JUNCTION      0.04   106.17     0  01:42     0.00109       0.643      -0.000
  YS02001926           JUNCTION      0.05   106.38     0  01:42      0.0015       0.643       0.042
  YS02001929           JUNCTION    106.38   106.38     0  01:42       0.641       0.641      -0.011
  YS02006553           JUNCTION      0.00   485.19     0  01:44           0        2.79       0.423
  YS02006556           JUNCTION      0.00   488.72     0  01:44           0         2.8       0.299
  YS02006558           JUNCTION    235.67   721.51     0  01:43        1.28        4.05       0.102
  YS02006561           JUNCTION      0.00   718.97     0  01:44           0           4      -0.023
  YS02163301           JUNCTION      0.00   848.49     0  02:24           0        5.23       0.030
  YS02163601           JUNCTION      0.11  1071.04     0  02:23     0.00317        6.58       0.077
  YS02164001           JUNCTION      0.00  1071.46     0  02:23           0        6.58       0.038
  CC-1                 OUTFALL       0.00   683.00     0  00:05           0        5.48       0.000
  CC-2                 OUTFALL       0.00   683.00     0  00:10           0        3.54       0.000
  JK-1                 OUTFALL       0.00  1000.00     0  00:10           0        1.49       0.000
  JK-2                 OUTFALL       0.00  1000.00     0  01:15           0         1.5       0.000
  WSC                  OUTFALL       0.00   554.88     0  02:27           0        4.98       0.000
  CC-storage           STORAGE       0.00  1865.75     0  02:25           0        13.8      -0.162
  JK-storage           STORAGE       0.00   701.48     0  01:45           0        4.19      -0.414
  
  
  **********************
  Node Surcharge Summary
  **********************
  
  Surcharging occurs when water rises above the top of the highest conduit.
  ---------------------------------------------------------------------
                                               Max. Height   Min. Depth
                                   Hours       Above Crown    Below Rim
  Node                 Type      Surcharged         Meters       Meters
  ---------------------------------------------------------------------
  WS02006109           JUNCTION        1.52          0.826        0.994
  WS02006110           JUNCTION        0.60          0.522        1.328
  WS02006111           JUNCTION        0.01          0.087        1.783
  WS02006112           JUNCTION        0.62          1.680        0.000
  WS02006113           JUNCTION        0.01          0.600        1.330
  WS02006115           JUNCTION        0.01          0.642        1.608
  WS02006116           JUNCTION        0.01          0.000        2.290
  WS02006228           JUNCTION        1.52          0.679        1.521
  WS02006229           JUNCTION        1.53          0.600        1.850
  WS02006230           JUNCTION        0.61          0.434        1.136
  WS02006231           JUNCTION        0.66          0.585        0.945
  WS02006232           JUNCTION        1.56          1.070        0.410
  WS02006234           JUNCTION        0.93          1.240        0.000
  WS02006235           JUNCTION        1.49          1.290        0.000
  WS02006238           JUNCTION        1.51          1.382        0.048
  WS02006239           JUNCTION        1.50          1.290        0.000
  WS02006240           JUNCTION        1.51          1.160        0.230
  WS02006242           JUNCTION        1.62          0.820        0.000
  WS02006243           JUNCTION        1.44          0.699        0.071
  WS02006245           JUNCTION        1.44          0.704        0.146
  WS02006247           JUNCTION        1.47          0.660        0.100
  WS02006248           JUNCTION        1.42          0.380        0.000
  WS02006249           JUNCTION        1.45          0.390        0.000
  WS02006251           JUNCTION        0.69          0.311        0.869
  WS02006252           JUNCTION        1.87          1.100        0.000
  WS02006256           JUNCTION        6.77          2.050        0.000
  YS02001586           JUNCTION        0.20          0.237        0.273
  YS02001590           JUNCTION        0.61          0.494        0.256
  YS02001593           JUNCTION        0.61          0.507        0.333
  YS02001596           JUNCTION        1.42          0.812        0.258
  YS02001600           JUNCTION        1.70          1.117        0.073
  YS02001601           JUNCTION        2.08          1.429        0.011
  YS02001602           JUNCTION        2.02          1.176        0.094
  YS02001605           JUNCTION        1.99          0.937        0.243
  YS02001607           JUNCTION        0.28          0.161        0.519
  YS02001610           JUNCTION        0.48          0.198        0.482
  YS02001613           JUNCTION        0.25          0.138        0.562
  YS02001616           JUNCTION        0.11          0.056        0.554
  YS02001619           JUNCTION        0.06          0.027        0.583
  YS02001622           JUNCTION        0.02          0.010        0.610
  YS02001625           JUNCTION        1.36          0.246        0.534
  YS02001633           JUNCTION        1.38          0.246        0.814
  YS02001641           JUNCTION        0.44          0.086        1.014
  YS02001644           JUNCTION        0.17          0.029        0.891
  YS02001907           JUNCTION        0.52          0.059        0.891
  YS02006553           JUNCTION        0.69          0.074        1.116
  YS02163301           JUNCTION        1.35          0.241        0.789
  YS02163601           JUNCTION        1.41          0.225        0.855
  YS02164001           JUNCTION        0.54          0.107        0.993
  
  
  *********************
  Node Flooding Summary
  *********************
  
  Flooding refers to all water that overflows a node, whether it ponds or not.
  --------------------------------------------------------------------------
                                                             Total   Maximum
                                 Maximum   Time of Max       Flood    Ponded
                        Hours       Rate    Occurrence      Volume     Depth
  Node                 Flooded       LPS   days hr:min    10^6 ltr    Meters
  --------------------------------------------------------------------------
  WS02006112              0.01   1547.89      0  00:00       0.047     0.000
  WS02006234              0.01     66.23      0  01:55       0.000     0.000
  WS02006235              0.01     25.60      0  01:55       0.000     0.000
  WS02006239              0.01      2.47      0  01:55       0.000     0.000
  WS02006242              0.01     15.80      0  01:55       0.000     0.000
  WS02006248              0.01     10.22      0  02:05       0.000     0.000
  WS02006249              0.67     84.86      0  03:21       0.165     0.000
  WS02006252              0.01    248.19      0  01:45       0.000     0.000
  WS02006256              1.10    286.44      0  04:45       0.362     0.000
  
  
  **********************
  Storage Volume Summary
  **********************
  
  ------------------------------------------------------------------------------------------------
                         Average    Avg   Evap  Exfil     Maximum    Max    Time of Max    Maximum
                          Volume   Pcnt   Pcnt   Pcnt      Volume   Pcnt     Occurrence    Outflow
  Storage Unit           1000 m³   Full   Loss   Loss     1000 m³   Full    days hr:min        LPS
  ------------------------------------------------------------------------------------------------
  CC-storage               2.119   33.1    0.0    0.0       3.564   55.6       0  03:05    1766.00
  JK-storage               0.082   28.2    0.0    0.0       0.211   72.5       0  01:39    2300.00
  
  
  ***********************
  Outfall Loading Summary
  ***********************
  
  -----------------------------------------------------------
                         Flow       Avg       Max       Total
                         Freq      Flow      Flow      Volume
  Outfall Node           Pcnt       LPS       LPS    10^6 ltr
  -----------------------------------------------------------
  CC-1                  44.75    683.00    683.00       5.481
  CC-2                  30.24    683.00    683.00       3.540
  JK-1                  10.54   1000.00   1000.00       1.487
  JK-2                   8.00   1000.00   1000.00       1.502
  WSC                   99.99    231.51    554.88       4.981
  -----------------------------------------------------------
  System                38.71   3597.51   3918.17      16.992
  
  
  ********************
  Link Flow Summary
  ********************
  
  -----------------------------------------------------------------------------
                                 Maximum  Time of Max   Maximum    Max/    Max/
                                  |Flow|   Occurrence   |Veloc|    Full    Full
  Link                 Type          LPS  days hr:min     m/sec    Flow   Depth
  -----------------------------------------------------------------------------
  1                    CONDUIT    554.88     0  02:27      2.83    0.19    0.30
  WS02003060WS02003069 CONDUIT    553.00     0  02:25      1.64    0.22    0.34
  WS02003066WSF200     CONDUIT    536.51     0  02:24      2.85    0.09    0.22
  WS02003067WS02003066 CONDUIT    536.48     0  02:24      1.21    0.17    0.42
  WS02003069WS02003072 CONDUIT    553.19     0  02:25      1.37    0.27    0.39
  WS02003072WS02003073 CONDUIT    553.13     0  02:26      1.44    1.19    0.37
  WS02004401WS02004402 CONDUIT   1171.33     0  00:01      2.51    1.41    0.86
  WS02004402WS02004403 CONDUIT    884.75     0  00:01      2.16    1.27    0.88
  WS02004403WS02004404 CONDUIT    832.43     0  00:01      1.96    0.60    0.93
  WS02004404WS02004405 CONDUIT    776.45     0  00:01      2.26    7.61    0.96
  WS02004405WS02004406 CONDUIT    711.76     0  00:02      2.15    1.40    0.96
  WS02004406WS02004407 CONDUIT    537.39     0  02:22      1.04    0.24    0.63
  WS02004407WS02004409 CONDUIT    537.15     0  02:22      1.95    0.19    0.48
  WS02004409WS02004410 CONDUIT    536.93     0  02:23      1.31    0.69    0.67
  WS02004410WS02004411 CONDUIT    536.85     0  02:23      1.19    0.73    0.69
  WS02004411WS02004412 CONDUIT    536.64     0  02:23      1.08    0.76    0.69
  WS02004412WS02004413 CONDUIT    536.61     0  02:24      1.10    0.36    0.78
  WS02004413WS02003067 CONDUIT    536.46     0  02:24      1.11    0.23    0.59
  WS02006109WS02006110 CONDUIT   1306.78     0  00:00      3.14    2.51    1.00
  WS02006110WS02006113 CONDUIT    579.16     0  02:31      1.40    0.53    1.00
  WS02006111WS02006112 CONDUIT   2307.30     0  00:00      9.18    1.10    0.91
  WS02006112WS02006115 CONDUIT    899.27     0  00:00      1.16    0.53    1.00
  WS02006113WS02006111 CONDUIT   1176.04     0  00:00      2.47    1.41    1.00
  WS02006115WS02006116 CONDUIT   1098.16     0  00:01      1.72    1.41    1.00
  WS02006116WS02004401 CONDUIT   1677.78     0  00:00      2.92    2.31    0.84
  WS02006228WS02006109 CONDUIT    561.44     0  02:40      1.40    2.45    1.00
  WS02006229WS02006228 CONDUIT    560.54     0  02:40      1.24    1.86    1.00
  WS02006230WS02006229 CONDUIT    559.80     0  02:40      1.45   12.46    1.00
  WS02006231WS02006230 CONDUIT    571.01     0  02:40      1.55    8.66    1.00
  WS02006232WS02006231 CONDUIT    572.59     0  02:40      1.50    1.20    1.00
  WS02006234WS02006232 CONDUIT    572.04     0  02:40      1.49    1.16    1.00
  WS02006235WS02006234 CONDUIT    568.39     0  02:40      1.48    6.00    1.00
  WS02006238WS02006235 CONDUIT    427.11     0  02:35      1.67    0.95    1.00
  WS02006239WS02006238 CONDUIT    427.69     0  02:35      1.27    1.37    1.00
  WS02006240WS02006239 CONDUIT    426.16     0  02:35      1.33    1.34    1.00
  WS02006242WS02006240 CONDUIT    425.25     0  03:26      1.17    1.69    1.00
  WS02006243WS02006242 CONDUIT    424.75     0  03:26      1.45    0.91    1.00
  WS02006245WS02006243 CONDUIT    424.19     0  03:26      1.46    1.25    1.00
  WS02006247WS02006245 CONDUIT    423.89     0  02:02      1.42    3.36    1.00
  WS02006248WS02006247 CONDUIT    435.57     0  02:02      1.53    0.95    1.00
  WS02006249WS02006248 CONDUIT    441.89     0  02:01      1.54    2.42    1.00
  WS02006251WS02006249 CONDUIT    824.67     0  00:05      2.86    2.38    1.00
  WS02006252WS02006251 CONDUIT    460.01     0  00:05     17.28    1.69    1.00
  WS02006256WS02006235 CONDUIT    287.93     0  06:55      4.18    3.05    1.00
  WSF200WS02003060     CONDUIT    536.65     0  02:25      2.06    0.12    0.28
  YS02001580YS02001583 CONDUIT     11.43     0  02:18      0.32    0.04    0.84
  YS02001583YS02001586 CONDUIT     24.16     0  02:18      0.15    0.04    0.91
  YS02001586YS02001590 CONDUIT    220.57     0  02:27      1.28    0.39    1.00
  YS02001590YS02001593 CONDUIT    220.60     0  02:27      1.05    1.38    1.00
  YS02001593YS02001596 CONDUIT    220.64     0  02:27      1.70    0.35    1.00
  YS02001596YS02001600 CONDUIT    220.59     0  02:27      1.22    0.43    1.00
  YS02001600YS02001601 CONDUIT    220.61     0  02:27      0.78    0.38    1.00
  YS02001601YS02001602 CONDUIT    500.81     0  02:24      1.77    1.81    1.00
  YS02001602YS02001605 CONDUIT    500.95     0  02:24      1.77   10.60    1.00
  YS02001605YS02001607 CONDUIT    501.40     0  02:23      1.77    2.75    1.00
  YS02001607YS02001610 CONDUIT    502.30     0  02:23      0.74    0.48    1.00
  YS02001610YS02001613 CONDUIT    502.84     0  02:23      0.64    0.58    1.00
  YS02001613YS02001616 CONDUIT    503.21     0  02:24      0.69    0.43    1.00
  YS02001616YS02001619 CONDUIT    503.81     0  02:24      0.78    0.87    1.00
  YS02001619YS02001622 CONDUIT    851.02     0  02:23      1.61    1.25    1.00
  YS02001622YS02001625 CONDUIT    846.92     0  02:24      1.08    0.45    1.00
  YS02001625YS02001629 CONDUIT    847.23     0  02:24      1.11    0.40    0.93
  YS02001629YS02163301 CONDUIT    848.49     0  02:24      1.08    1.04    1.00
  YS02001633YS02163601 CONDUIT   1070.93     0  02:23      1.36    1.12    1.00
  YS02001641YS02001644 CONDUIT   1071.57     0  02:23      1.36    3.46    1.00
  YS02001644YS02001647 CONDUIT   1256.75     0  02:23      1.80    0.74    0.83
  YS02001647YS02001649 CONDUIT   1255.38     0  02:23      2.16    0.66    0.73
  YS02001649YS02001757 CONDUIT   1429.13     0  02:24      2.35    0.87    0.81
  YS02001652YS02001649 CONDUIT    191.78     0  01:41      1.20    0.10    0.69
  YS02001655YS02001652 CONDUIT    194.51     0  01:41      1.54    0.09    0.44
  YS02001658YS02001655 CONDUIT    194.45     0  01:41      1.73    0.08    0.25
  YS02001661YS02001658 CONDUIT    194.50     0  01:41      1.86    0.08    0.19
  YS02001664YS02001661 CONDUIT    194.63     0  01:41      1.60    0.06    0.21
  YS02001745YS02001748 CONDUIT    116.99     0  01:40      1.67    0.05    0.14
  YS02001748YS02001751 CONDUIT    117.10     0  01:40      1.40    0.06    0.18
  YS02001751YS02001754 CONDUIT    117.59     0  01:40      1.37    0.06    0.32
  YS02001754YS02001757 CONDUIT    119.13     0  01:40      0.94    0.05    0.66
  YS02001757CaochengTiaoxuchi CONDUIT   1865.75     0  02:25      2.98    0.81    0.92
  YS02001759YS02001757 CONDUIT    372.59     0  01:43      1.24    0.26    0.79
  YS02001762YS02001759 CONDUIT    223.30     0  02:28      0.74    0.26    0.72
  YS02001765YS02001762 CONDUIT    218.59     0  01:44      0.84    0.20    0.68
  YS02001767YS02001765 CONDUIT    224.38     0  01:43      0.90    0.28    0.64
  YS02001770YS02001767 CONDUIT    224.70     0  01:43      0.80    0.89    0.62
  YS02001774YS02001770 CONDUIT     54.73     0  01:06      0.65    0.03    0.65
  YS02001779YS02001774 CONDUIT     20.66     0  01:07      0.17    0.01    0.57
  YS02001783YS02001784 CONDUIT    705.76     0  01:44      1.61    0.97    0.82
  YS02001784YS02001785 CONDUIT    700.90     0  01:44      1.74    1.63    0.75
  YS02001786YS02001788 CONDUIT    700.86     0  01:44      2.18    1.35    0.61
  YS02001788YS02001790 CONDUIT    702.58     0  01:44      2.27    0.52    0.59
  YS02001790YS02001791 CONDUIT    717.73     0  01:45      2.72    0.78    0.52
  YS02001791YS02001793 CONDUIT    701.53     0  01:45      5.61    0.30    0.30
  YS02001793JiankangQianchi CONDUIT    701.48     0  01:45      1.48    0.06    0.58
  YS02001882YS02001884 CONDUIT     33.81     0  02:35      0.35    0.04    0.66
  YS02001884YS02001887 CONDUIT     62.87     0  01:13      0.29    0.08    0.75
  YS02001887YS02001890 CONDUIT    187.09     0  01:42      0.33    0.32    0.81
  YS02001890YS02001895 CONDUIT    182.60     0  01:42      0.36    0.09    0.73
  YS02001895YS02001898 CONDUIT    197.37     0  01:42      0.64    0.34    0.60
  YS02001898YS02001901 CONDUIT    207.00     0  01:43      0.53    0.13    0.68
  YS02001901YS02001904 CONDUIT    191.73     0  01:44      0.57    0.30    0.74
  YS02001904YS02001907 CONDUIT    207.78     0  01:43      0.32    0.07    0.86
  YS02001907YS02006553 CONDUIT    485.19     0  01:44      0.54    0.57    1.00
  YS02001910YS02001907 CONDUIT    336.56     0  01:43      0.49    0.19    0.93
  YS02001915YS02001910 CONDUIT    355.79     0  01:44      1.04    0.18    0.74
  YS02001918YS02001915 CONDUIT    121.80     0  01:44      0.44    0.07    0.45
  YS02001920YS02001918 CONDUIT    112.45     0  01:42      0.67    0.11    0.31
  YS02001923YS02001920 CONDUIT    106.16     0  01:42      0.71    0.05    0.25
  YS02001926YS02001923 CONDUIT    106.13     0  01:42      0.79    0.15    0.23
  YS02001929YS02001926 CONDUIT    106.32     0  01:42      0.86    0.05    0.21
  YS02006553YS02006556 CONDUIT    488.72     0  01:44      0.63    0.42    1.00
  YS02006556YS02006558 CONDUIT    505.57     0  01:44      0.64    0.40    1.00
  YS02006558YS02006561 CONDUIT    718.97     0  01:44      3.13    1.59    0.78
  YS02006561YS02001783 CONDUIT    714.68     0  01:44      2.12    0.37    0.64
  YS02163301YS02001633 CONDUIT    847.61     0  02:24      1.08    0.80    1.00
  YS02163601YS02164001 CONDUIT   1071.46     0  02:23      1.36    0.95    1.00
  YS02164001YS02001641 CONDUIT   1071.64     0  02:23      1.36    1.46    1.00
  CC-R1                PUMP       683.00     0  00:05              1.00
  CC-R2                PUMP       683.00     0  00:10              1.00
  CC-S1                PUMP       200.00     0  00:05              1.00
  CC-S2                PUMP       200.00     0  00:05              1.00
  JK-R1                PUMP      1000.00     0  00:10              1.00
  JK-R2                PUMP      1000.00     0  01:15              1.00
  JK-S                 PUMP       300.00     0  00:15              1.00
  
  
  ***************************
  Flow Classification Summary
  ***************************
  
  -------------------------------------------------------------------------------------
                      Adjusted    ---------- Fraction of Time in Flow Class ---------- 
                       /Actual         Up    Down  Sub   Sup   Up    Down  Norm  Inlet 
  Conduit               Length    Dry  Dry   Dry   Crit  Crit  Crit  Crit  Ltd   Ctrl  
  -------------------------------------------------------------------------------------
  1                       1.00   0.00  0.00  0.00  0.00  1.00  0.00  0.00  0.33  0.00
  WS02003060WS02003069    1.00   0.00  0.00  0.00  0.96  0.04  0.00  0.00  0.69  0.00
  WS02003066WSF200        1.00   0.03  0.00  0.00  0.00  0.97  0.00  0.00  0.87  0.00
  WS02003067WS02003066    1.00   0.02  0.01  0.00  0.97  0.00  0.00  0.00  0.00  0.00
  WS02003069WS02003072    1.00   0.00  0.00  0.00  0.99  0.01  0.00  0.00  0.79  0.00
  WS02003072WS02003073    1.00   0.00  0.00  0.00  0.00  0.00  0.00  1.00  0.00  0.00
  WS02004401WS02004402    1.00   0.00  0.00  0.00  1.00  0.00  0.00  0.00  0.00  0.00
  WS02004402WS02004403    1.00   0.00  0.00  0.00  1.00  0.00  0.00  0.00  0.00  0.00
  WS02004403WS02004404    1.00   0.00  0.00  0.00  1.00  0.00  0.00  0.00  0.00  0.00
  WS02004404WS02004405    1.00   0.00  0.00  0.00  1.00  0.00  0.00  0.00  0.01  0.00
  WS02004405WS02004406    1.00   0.00  0.00  0.00  1.00  0.00  0.00  0.00  0.00  0.00
  WS02004406WS02004407    1.00   0.00  0.00  0.00  1.00  0.00  0.00  0.00  0.00  0.00
  WS02004407WS02004409    1.00   0.00  0.00  0.00  0.99  0.00  0.00  0.00  0.99  0.00
  WS02004409WS02004410    1.00   0.00  0.00  0.00  0.99  0.00  0.00  0.00  0.00  0.00
  WS02004410WS02004411    1.00   0.01  0.00  0.00  0.99  0.00  0.00  0.00  0.00  0.00
  WS02004411WS02004412    1.00   0.01  0.00  0.00  0.99  0.00  0.00  0.00  0.00  0.00
  WS02004412WS02004413    1.00   0.01  0.00  0.00  0.99  0.00  0.00  0.00  0.00  0.00
  WS02004413WS02003067    1.00   0.01  0.01  0.00  0.00  0.00  0.98  0.00  0.00  0.00
  WS02006109WS02006110    1.00   0.00  0.00  0.00  1.00  0.00  0.00  0.00  0.00  0.00
  WS02006110WS02006113    1.00   0.00  0.00  0.00  1.00  0.00  0.00  0.00  0.00  0.00
  WS02006111WS02006112    1.00   0.00  0.00  0.00  1.00  0.00  0.00  0.00  1.00  0.00
  WS02006112WS02006115    1.00   0.00  0.00  0.00  1.00  0.00  0.00  0.00  0.00  0.00
  WS02006113WS02006111    1.00   0.00  0.00  0.00  0.01  0.99  0.00  0.00  0.13  0.00
  WS02006115WS02006116    1.00   0.00  0.00  0.00  1.00  0.00  0.00  0.00  0.00  0.00
  WS02006116WS02004401    1.00   0.00  0.00  0.00  1.00  0.00  0.00  0.00  0.00  0.00
  WS02006228WS02006109    1.00   0.00  0.00  0.00  1.00  0.00  0.00  0.00  0.00  0.00
  WS02006229WS02006228    1.00   0.00  0.00  0.00  1.00  0.00  0.00  0.00  0.00  0.00
  WS02006230WS02006229    1.00   0.00  0.00  0.00  1.00  0.00  0.00  0.00  0.04  0.00
  WS02006231WS02006230    1.00   0.00  0.00  0.00  0.22  0.00  0.77  0.00  0.00  0.00
  WS02006232WS02006231    1.00   0.00  0.00  0.00  0.99  0.00  0.01  0.00  0.00  0.00
  WS02006234WS02006232    1.00   0.00  0.00  0.00  0.99  0.00  0.00  0.00  0.03  0.00
  WS02006235WS02006234    1.00   0.01  0.00  0.00  0.90  0.00  0.08  0.00  0.00  0.00
  WS02006238WS02006235    1.00   0.01  0.00  0.00  0.99  0.00  0.00  0.00  0.00  0.00
  WS02006239WS02006238    1.00   0.01  0.00  0.00  0.98  0.00  0.00  0.00  0.13  0.00
  WS02006240WS02006239    1.00   0.01  0.00  0.00  0.69  0.00  0.00  0.29  0.06  0.00
  WS02006242WS02006240    1.00   0.01  0.00  0.00  0.97  0.00  0.01  0.00  0.00  0.00
  WS02006243WS02006242    1.00   0.01  0.00  0.00  0.98  0.00  0.00  0.01  0.55  0.00
  WS02006245WS02006243    1.00   0.01  0.00  0.00  0.84  0.00  0.00  0.15  0.01  0.00
  WS02006247WS02006245    1.00   0.01  0.00  0.00  0.94  0.00  0.00  0.05  0.00  0.00
  WS02006248WS02006247    1.00   0.01  0.00  0.00  0.97  0.00  0.00  0.02  0.51  0.00
  WS02006249WS02006248    1.00   0.00  0.01  0.00  0.45  0.00  0.54  0.00  0.00  0.00
  WS02006251WS02006249    1.00   0.00  0.00  0.00  0.99  0.01  0.00  0.00  0.55  0.00
  WS02006252WS02006251    1.00   0.01  0.53  0.00  0.09  0.00  0.37  0.00  0.00  0.00
  WS02006256WS02006235    1.00   0.01  0.00  0.00  0.97  0.02  0.00  0.00  0.01  0.00
  WSF200WS02003060        1.00   0.00  0.03  0.00  0.42  0.55  0.00  0.00  0.63  0.00
  YS02001580YS02001583    1.00   0.21  0.58  0.00  0.21  0.00  0.00  0.00  0.72  0.00
  YS02001583YS02001586    1.00   0.46  0.28  0.00  0.26  0.00  0.00  0.00  0.72  0.00
  YS02001586YS02001590    1.00   0.13  0.00  0.00  0.44  0.03  0.00  0.40  0.36  0.00
  YS02001590YS02001593    1.00   0.13  0.00  0.00  0.18  0.00  0.69  0.00  0.00  0.00
  YS02001593YS02001596    1.00   0.13  0.00  0.00  0.21  0.01  0.00  0.64  0.04  0.00
  YS02001596YS02001600    1.00   0.13  0.00  0.00  0.27  0.01  0.00  0.59  0.03  0.00
  YS02001600YS02001601    1.00   0.13  0.00  0.00  0.87  0.00  0.00  0.00  0.56  0.00
  YS02001601YS02001602    1.00   0.13  0.00  0.00  0.87  0.00  0.00  0.00  0.00  0.00
  YS02001602YS02001605    1.00   0.13  0.00  0.00  0.87  0.00  0.00  0.00  0.00  0.00
  YS02001605YS02001607    1.00   0.13  0.00  0.00  0.87  0.00  0.00  0.00  0.00  0.00
  YS02001607YS02001610    1.00   0.13  0.00  0.00  0.87  0.00  0.00  0.00  0.00  0.00
  YS02001610YS02001613    1.00   0.13  0.00  0.00  0.87  0.00  0.00  0.00  0.00  0.00
  YS02001613YS02001616    1.00   0.13  0.00  0.00  0.87  0.00  0.00  0.00  0.00  0.00
  YS02001616YS02001619    1.00   0.13  0.00  0.00  0.87  0.00  0.00  0.00  0.00  0.00
  YS02001619YS02001622    1.00   0.13  0.00  0.00  0.87  0.00  0.00  0.00  0.32  0.00
  YS02001622YS02001625    1.00   0.13  0.00  0.00  0.87  0.01  0.00  0.00  0.01  0.00
  YS02001625YS02001629    1.00   0.13  0.02  0.00  0.25  0.00  0.61  0.00  0.00  0.00
  YS02001629YS02163301    1.00   0.13  0.00  0.00  0.87  0.00  0.00  0.00  0.00  0.00
  YS02001633YS02163601    1.00   0.00  0.01  0.00  0.99  0.00  0.00  0.00  0.13  0.00
  YS02001641YS02001644    1.00   0.00  0.01  0.00  0.99  0.00  0.00  0.00  0.00  0.00
  YS02001644YS02001647    1.00   0.00  0.14  0.00  0.86  0.00  0.00  0.00  0.00  0.00
  YS02001647YS02001649    1.00   0.00  0.13  0.00  0.58  0.28  0.00  0.00  0.56  0.00
  YS02001649YS02001757    1.00   0.00  0.00  0.00  0.66  0.34  0.00  0.00  0.52  0.00
  YS02001652YS02001649    1.00   0.00  0.00  0.00  0.99  0.01  0.00  0.00  0.69  0.00
  YS02001655YS02001652    1.00   0.00  0.00  0.00  0.26  0.01  0.00  0.74  0.16  0.00
  YS02001658YS02001655    1.00   0.00  0.13  0.00  0.56  0.32  0.00  0.00  0.79  0.00
  YS02001661YS02001658    1.00   0.13  0.00  0.00  0.43  0.44  0.00  0.00  0.81  0.00
  YS02001664YS02001661    1.00   0.13  0.00  0.00  0.62  0.25  0.00  0.00  0.87  0.00
  YS02001745YS02001748    1.00   0.00  0.00  0.00  0.00  0.00  0.00  1.00  0.00  0.00
  YS02001748YS02001751    1.00   0.00  0.00  0.00  0.70  0.30  0.00  0.00  0.85  0.00
  YS02001751YS02001754    1.00   0.00  0.00  0.00  0.19  0.01  0.00  0.80  0.17  0.00
  YS02001754YS02001757    1.00   0.00  0.00  0.00  0.99  0.01  0.00  0.00  0.77  0.00
  YS02001757CaochengTiaoxuchi    1.00   0.00  0.00  0.00  0.95  0.05  0.00  0.00  0.76  0.00
  YS02001759YS02001757    1.00   0.00  0.00  0.00  0.99  0.01  0.00  0.00  0.64  0.00
  YS02001762YS02001759    1.00   0.00  0.00  0.00  1.00  0.00  0.00  0.00  0.02  0.00
  YS02001765YS02001762    1.00   0.00  0.00  0.00  1.00  0.00  0.00  0.00  0.69  0.00
  YS02001767YS02001765    1.00   0.00  0.00  0.00  1.00  0.00  0.00  0.00  0.00  0.00
  YS02001770YS02001767    1.00   0.00  0.00  0.00  1.00  0.00  0.00  0.00  0.00  0.00
  YS02001774YS02001770    1.00   0.00  0.13  0.00  0.63  0.00  0.25  0.00  0.00  0.00
  YS02001779YS02001774    1.00   0.00  0.00  0.00  1.00  0.00  0.00  0.00  0.73  0.00
  YS02001783YS02001784    1.00   0.00  0.14  0.00  0.86  0.00  0.00  0.00  0.55  0.00
  YS02001784YS02001785    1.00   0.00  0.00  0.00  1.00  0.00  0.00  0.00  0.13  0.00
  YS02001786YS02001788    1.00   0.00  0.00  0.00  0.69  0.31  0.00  0.00  0.00  0.00
  YS02001788YS02001790    1.00   0.00  0.00  0.00  0.15  0.85  0.00  0.00  0.75  0.00
  YS02001790YS02001791    1.00   0.00  0.00  0.00  0.01  0.99  0.00  0.00  0.27  0.00
  YS02001791YS02001793    1.00   0.00  0.00  0.00  0.00  1.00  0.00  0.00  0.00  0.00
  YS02001793JiankangQianchi    1.00   0.00  0.00  0.00  1.00  0.00  0.00  0.00  1.00  0.00
  YS02001882YS02001884    1.00   0.13  0.00  0.00  0.87  0.00  0.00  0.00  0.00  0.00
  YS02001884YS02001887    1.00   0.06  0.05  0.00  0.89  0.00  0.00  0.00  0.00  0.00
  YS02001887YS02001890    1.00   0.00  0.00  0.00  0.97  0.00  0.03  0.00  0.00  0.00
  YS02001890YS02001895    1.00   0.00  0.13  0.00  0.87  0.00  0.00  0.00  0.00  0.00
  YS02001895YS02001898    1.00   0.13  0.00  0.00  0.86  0.00  0.01  0.00  0.00  0.00
  YS02001898YS02001901    1.00   0.14  0.00  0.00  0.86  0.00  0.00  0.00  0.00  0.00
  YS02001901YS02001904    1.00   0.14  0.00  0.00  0.86  0.00  0.00  0.00  0.00  0.00
  YS02001904YS02001907    1.00   0.00  0.13  0.00  0.86  0.00  0.00  0.00  0.00  0.00
  YS02001907YS02006553    1.00   0.00  0.02  0.00  0.98  0.00  0.00  0.00  0.00  0.00
  YS02001910YS02001907    1.00   0.00  0.00  0.00  0.97  0.00  0.00  0.03  0.10  0.00
  YS02001915YS02001910    1.00   0.00  0.00  0.00  0.98  0.02  0.00  0.00  0.11  0.00
  YS02001918YS02001915    1.00   0.00  0.00  0.00  0.98  0.02  0.00  0.00  0.68  0.00
  YS02001920YS02001918    1.00   0.00  0.00  0.00  1.00  0.00  0.00  0.00  0.01  0.00
  YS02001923YS02001920    1.00   0.00  0.00  0.00  1.00  0.00  0.00  0.00  1.00  0.00
  YS02001926YS02001923    1.00   0.00  0.07  0.00  0.00  0.00  0.93  0.00  0.00  0.00
  YS02001929YS02001926    1.00   0.00  0.13  0.00  0.87  0.00  0.00  0.00  0.87  0.00
  YS02006553YS02006556    1.00   0.01  0.00  0.00  0.99  0.00  0.00  0.00  0.03  0.00
  YS02006556YS02006558    1.00   0.00  0.00  0.00  1.00  0.00  0.00  0.00  0.00  0.00
  YS02006558YS02006561    1.00   0.14  0.00  0.00  0.00  0.86  0.00  0.00  0.15  0.00
  YS02006561YS02001783    1.00   0.14  0.00  0.00  0.00  0.86  0.00  0.00  0.63  0.00
  YS02163301YS02001633    1.00   0.00  0.13  0.00  0.87  0.00  0.00  0.00  0.00  0.00
  YS02163601YS02164001    1.00   0.00  0.08  0.00  0.92  0.00  0.00  0.00  0.00  0.00
  YS02164001YS02001641    1.00   0.01  0.07  0.00  0.92  0.00  0.00  0.00  0.05  0.00
  
  
  *************************
  Conduit Surcharge Summary
  *************************
  
  ----------------------------------------------------------------------------
                                                           Hours        Hours 
                         --------- Hours Full --------   Above Full   Capacity
  Conduit                Both Ends  Upstream  Dnstream   Normal Flow   Limited
  ----------------------------------------------------------------------------
  WS02003072WS02003073        0.01      0.01      0.01      0.83         0.01
  WS02004401WS02004402        0.01      0.01      0.01      0.01         0.01
  WS02004402WS02004403        0.01      0.01      0.01      0.01         0.01
  WS02004404WS02004405        0.01      0.01      0.01      3.26         0.01
  WS02004405WS02004406        0.01      0.01      0.01      0.55         0.01
  WS02006109WS02006110        0.59      0.60      1.56      0.65         0.01
  WS02006110WS02006113        0.01      0.01      1.55      0.01         0.01
  WS02006111WS02006112        0.01      0.01      1.88      0.01         0.01
  WS02006112WS02006115        0.01      0.01      0.61      0.01         0.01
  WS02006113WS02006111        0.01      0.01      0.01      0.01         0.01
  WS02006115WS02006116        0.01      0.01      0.01      0.01         0.01
  WS02006116WS02004401        0.01      0.01      0.01      0.01         0.01
  WS02006228WS02006109        1.52      1.56      1.52      2.38         1.52
  WS02006229WS02006228        1.52      1.53      1.52      1.87         1.51
  WS02006230WS02006229        1.69      1.79      1.69      3.63         1.69
  WS02006231WS02006230        0.61      0.61      0.68      3.26         0.01
  WS02006232WS02006231        0.65      0.65      1.56      0.71         0.01
  WS02006234WS02006232        1.48      1.48      1.56      0.69         0.69
  WS02006235WS02006234        0.92      0.93      1.49      3.11         0.01
  WS02006238WS02006235        1.50      1.50      1.57      0.01         0.01
  WS02006239WS02006238        1.51      1.55      1.51      1.68         1.37
  WS02006240WS02006239        1.50      1.51      1.50      1.68         1.35
  WS02006242WS02006240        1.51      1.51      1.66      1.86         0.01
  WS02006243WS02006242        1.46      1.46      1.62      0.01         0.02
  WS02006245WS02006243        1.44      1.45      1.44      1.10         0.80
  WS02006247WS02006245        1.44      1.49      1.44      2.85         1.43
  WS02006248WS02006247        1.44      1.44      1.47      0.01         0.03
  WS02006249WS02006248        1.42      1.42      1.45      2.80         0.01
  WS02006251WS02006249        1.45      1.48      1.45      1.78         1.41
  WS02006252WS02006251        1.84      1.84      1.86      1.85         0.01
  WS02006256WS02006235        3.13      3.18      6.67      1.14         0.01
  YS02001583YS02001586        0.01      0.01      0.20      0.01         0.01
  YS02001586YS02001590        0.22      0.22      0.61      0.01         0.01
  YS02001590YS02001593        0.61      0.61      0.74      1.34         0.01
  YS02001593YS02001596        0.66      0.66      1.42      0.01         0.01
  YS02001596YS02001600        1.51      1.51      1.70      0.01         0.01
  YS02001600YS02001601        1.80      1.80      2.08      0.01         0.01
  YS02001601YS02001602        2.02      2.02      2.10      1.77         0.01
  YS02001602YS02001605        1.99      1.99      2.02      2.54         0.01
  YS02001605YS02001607        1.95      1.99      1.95      2.06         1.95
  YS02001607YS02001610        0.28      0.28      0.48      0.01         0.01
  YS02001610YS02001613        0.25      0.25      0.48      0.01         0.01
  YS02001613YS02001616        0.11      0.11      0.25      0.01         0.01
  YS02001616YS02001619        0.06      0.06      0.11      0.01         0.01
  YS02001619YS02001622        0.02      0.06      0.02      1.22         0.02
  YS02001622YS02001625        0.02      0.02      1.36      0.01         0.01
  YS02001625YS02001629        0.01      0.01      1.36      0.01         0.01
  YS02001629YS02163301        1.24      1.24      1.35      0.16         0.16
  YS02001633YS02163601        1.38      1.38      1.41      0.41         0.40
  YS02001641YS02001644        0.17      0.44      0.17      2.09         0.17
  YS02001644YS02001647        0.01      0.01      0.17      0.01         0.01
  YS02001757CaochengTiaoxuchi        0.01      0.01      1.34      0.01         0.01
  YS02001784YS02001785        0.01      0.01      0.01      1.59         0.01
  YS02001786YS02001788        0.01      0.01      0.01      1.01         0.01
  YS02001793JiankangQianchi        0.01      0.01      6.71      0.01         0.01
  YS02001904YS02001907        0.01      0.01      0.71      0.01         0.01
  YS02001907YS02006553        1.60      1.60      1.70      0.01         0.01
  YS02001910YS02001907        0.01      0.01      0.52      0.01         0.01
  YS02006553YS02006556        0.01      0.01      0.69      0.01         0.01
  YS02006556YS02006558        0.13      0.13      0.98      0.01         0.01
  YS02006558YS02006561        0.01      0.01      0.01      1.46         0.01
  YS02163301YS02001633        1.35      1.35      1.40      0.01         0.01
  YS02163601YS02164001        0.54      0.54      1.41      0.01         0.01
  YS02164001YS02001641        0.44      0.54      0.44      1.45         0.44
  
  
  ***************
  Pumping Summary
  ***************
  
  ---------------------------------------------------------------------------------------------------------
                                                  Min       Avg       Max     Total     Power    % Time Off
                        Percent   Number of      Flow      Flow      Flow    Volume     Usage    Pump Curve
  Pump                 Utilized   Start-Ups       LPS       LPS       LPS  10^6 ltr     Kw-hr    Low   High
  ---------------------------------------------------------------------------------------------------------
  CC-R1                   27.92          23      0.00    683.00    683.00     5.492     96.81    0.0   47.5
  CC-R2                   18.03          20      0.00    683.00    683.00     3.547     62.87    0.0   40.8
  CC-S1                   32.06          24      0.00    200.00    200.00     1.847     11.66    0.0    0.0
  CC-S2                   27.75          16      0.00    200.00    200.00     1.599     10.00    0.0    0.0
  JK-R1                    5.17          18      0.00   1000.00   1000.00     1.488     12.41    0.0    0.0
  JK-R2                    5.22          20      0.00   1000.00   1000.00     1.503     11.25    0.0    0.0
  JK-S                    13.65          36      0.00    300.00    300.00     1.180     20.59    0.0    0.0
  

  Analysis begun on:  Fri Aug  4 07:05:01 2023
  Analysis ended on:  Fri Aug  4 07:05:06 2023
  Total elapsed time: 00:00:05