
  OWA STORM WATER MANAGEMENT MODEL - VERSION v5.1.14 (OWA 2022-07-31)
  --------------------------------------------------------------

  WARNING 04: minimum elevation drop used for Conduit WS02004404WS02004405
  WARNING 03: negative offset ignored for Link YS02001904YS02001907
  
  *********************************************************
  NOTE: The summary statistics displayed in this report are
  based on results found at every computational time step,  
  not just on results from each reporting time step.
  *********************************************************
  
  ****************
  Analysis Options
  ****************
  Flow Units ............... LPS
  Process Models:
    Rainfall/Runoff ........ YES
    RDII ................... NO
    Snowmelt ............... NO
    Groundwater ............ NO
    Flow Routing ........... YES
    Ponding Allowed ........ NO
    Water Quality .......... NO
  Infiltration Method ...... HORTON
  Flow Routing Method ...... DYNWAVE
  Surcharge Method ......... EXTRAN
  Starting Date ............ 08/28/2015 08:00:00
  Ending Date .............. 08/28/2015 16:00:00
  Antecedent Dry Days ...... 8.0
  Report Time Step ......... 00:01:00
  Wet Time Step ............ 00:01:00
  Dry Time Step ............ 00:01:00
  Routing Time Step ........ 30.00 sec
  Variable Time Step ....... YES
  Maximum Trials ........... 8
  Number of Threads ........ 1
  Head Tolerance ........... 0.001500 m
  
  
  **************************        Volume         Depth
  Runoff Quantity Continuity     hectare-m            mm
  **************************     ---------       -------
  Initial LID Storage ......         0.049         1.488
  Total Precipitation ......         1.724        51.961
  Evaporation Loss .........         0.000         0.000
  Infiltration Loss ........         0.075         2.250
  Surface Runoff ...........         1.260        37.993
  Final Storage ............         0.439        13.220
  Continuity Error (%) .....        -0.027
  
  
  **************************        Volume        Volume
  Flow Routing Continuity        hectare-m      10^6 ltr
  **************************     ---------     ---------
  Dry Weather Inflow .......         0.000         0.000
  Wet Weather Inflow .......         1.260        12.600
  Groundwater Inflow .......         0.000         0.000
  RDII Inflow ..............         0.000         0.000
  External Inflow ..........         0.083         0.834
  External Outflow .........         1.237        12.369
  Flooding Loss ............         0.205         2.050
  Evaporation Loss .........         0.000         0.000
  Exfiltration Loss ........         0.000         0.000
  Initial Stored Volume ....         0.243         2.431
  Final Stored Volume ......         0.178         1.783
  Continuity Error (%) .....        -2.126
  
  
  *************************
  Highest Continuity Errors
  *************************
  Node YS02001583 (-8.45%)
  Node YS02001884 (3.69%)
  Node WS02006256 (-2.27%)
  Node WS02006110 (-1.66%)
  Node YS02001774 (1.60%)
  
  
  ***************************
  Time-Step Critical Elements
  ***************************
  Link WS02004404WS02004405 (28.04%)
  Link WS02006252WS02006251 (21.05%)
  Link WS02006238WS02006235 (18.00%)
  Link WS02003066WSF200 (8.53%)
  Link YS02001791YS02001793 (6.00%)
  
  
  ********************************
  Highest Flow Instability Indexes
  ********************************
  Link WS02006113WS02006111 (37)
  Link WS02004404WS02004405 (19)
  Link WS02006256WS02006235 (19)
  Link WS02004403WS02004404 (17)
  Link WS02006111WS02006112 (15)
  
  
  *************************
  Routing Time Step Summary
  *************************
  Minimum Time Step           :     0.00 sec
  Average Time Step           :     3.00 sec
  Maximum Time Step           :    30.00 sec
  Percent in Steady State     :    -0.00
  Average Iterations per Step :     3.31
  Percent Not Converging      :    14.56
  
  
  ***************************
  Subcatchment Runoff Summary
  ***************************
  
  ------------------------------------------------------------------------------------------------------------------------------
                            Total      Total      Total      Total     Imperv       Perv      Total       Total     Peak  Runoff
                           Precip      Runon       Evap      Infil     Runoff     Runoff     Runoff      Runoff   Runoff   Coeff
  Subcatchment                 mm         mm         mm         mm         mm         mm         mm    10^6 ltr      LPS
  ------------------------------------------------------------------------------------------------------------------------------
  sub60                     51.96       0.00       0.00       1.35      34.36       3.46      37.83        0.50   345.30   0.728
  sub61                     51.96       0.00       0.00       2.07      34.33       5.15      39.49        0.72   502.41   0.760
  sub62                     51.96       0.00       0.00       0.92      36.60       2.35      38.95        1.07   688.98   0.750
  sub63                     51.96       0.00       0.00       3.78      29.41       8.56      37.97        0.86   562.26   0.731
  sub64                     51.96       0.00       0.00       1.81      33.48       4.26      37.74        0.91   554.80   0.726
  sub65                     51.96       0.00       0.00       1.66      36.13       3.89      40.02        1.10   645.94   0.770
  sub66                     51.96       0.00       0.00       4.39      28.42       7.56      35.98        1.68   818.25   0.693
  sub67                     51.96       0.00       0.00       0.91      37.53       2.44      39.96        0.74   540.30   0.769
  sub68                     51.96       0.00       0.00       1.59      33.14       3.96      37.09        1.02   686.45   0.714
  sub69                     51.96       0.00       0.00       1.44      34.92       4.74      39.66        1.47   837.90   0.763
  sub70                     51.96       0.00       0.00       4.80      27.97       9.66      37.63        1.09   473.76   0.724
  sub71                     51.96       0.00       0.00       0.85      33.24       2.13      35.37        0.92   563.66   0.681
  sub72                     51.96       0.00       0.00       0.80      35.90       1.98      37.88        0.52   288.54   0.729
  

  ***********************
  LID Performance Summary
  ***********************

  --------------------------------------------------------------------------------------------------------------------
                                         Total      Evap     Infil   Surface    Drain    Initial     Final  Continuity
                                        Inflow      Loss      Loss   Outflow   Outflow   Storage   Storage       Error
  Subcatchment      LID Control             mm        mm        mm        mm        mm        mm        mm           %
  --------------------------------------------------------------------------------------------------------------------
  sub60             GreenRoof            51.96      0.00      0.00      0.00      0.00      7.05     59.04       -0.04
  sub61             GreenRoof            51.96      0.00      0.00      0.00      0.00      7.05     59.04       -0.04
  sub62             GreenRoof            51.96      0.00      0.00      0.00      0.00      7.05     59.04       -0.04
  sub63             GreenRoof            51.96      0.00      0.00      0.00      0.00      7.05     59.04       -0.04
  sub64             GreenRoof            51.96      0.00      0.00      0.00      0.00      7.05     59.04       -0.04
  sub65             GreenRoof            51.96      0.00      0.00      0.00      0.00      7.05     59.04       -0.04
  sub66             GreenRoof            51.96      0.00      0.00      0.00      0.00      7.05     59.04       -0.04
  sub67             GreenRoof            51.96      0.00      0.00      0.00      0.00      7.05     59.04       -0.04
  sub68             GreenRoof            51.96      0.00      0.00      0.00      0.00      7.05     59.04       -0.04
  sub69             GreenRoof            51.96      0.00      0.00      0.00      0.00      7.05     59.04       -0.04
  sub70             GreenRoof            51.96      0.00      0.00      0.00      0.00      7.05     59.04       -0.04
  sub71             GreenRoof            51.96      0.00      0.00      0.00      0.00      7.05     59.04       -0.04
  sub72             GreenRoof            51.96      0.00      0.00      0.00      0.00      7.05     59.04       -0.04
  
  ******************
  Node Depth Summary
  ******************
  
  ---------------------------------------------------------------------------------
                                 Average  Maximum  Maximum  Time of Max    Reported
                                   Depth    Depth      HGL   Occurrence   Max Depth
  Node                 Type       Meters   Meters   Meters  days hr:min      Meters
  ---------------------------------------------------------------------------------
  WS02003060           JUNCTION     0.21     0.38     5.31     0  02:48        0.38
  WS02003066           JUNCTION     0.18     0.30     5.85     0  02:48        0.30
  WS02003067           JUNCTION     0.48     0.70     6.02     0  02:47        0.70
  WS02003069           JUNCTION     0.23     0.43     5.01     0  02:49        0.43
  WS02003072           JUNCTION     0.29     0.50     4.87     0  02:49        0.50
  WS02003073           JUNCTION     0.16     0.30     4.36     0  02:50        0.30
  WS02004401           JUNCTION     0.56     0.87     6.87     0  02:45        0.87
  WS02004402           JUNCTION     0.60     0.90     6.86     0  02:45        0.90
  WS02004403           JUNCTION     0.62     0.92     6.85     0  02:46        0.91
  WS02004404           JUNCTION     0.70     1.00     6.85     0  02:21        0.99
  WS02004405           JUNCTION     0.69     0.96     6.81     0  02:45        0.95
  WS02004406           JUNCTION     0.71     0.96     6.79     0  02:45        0.96
  WS02004407           JUNCTION     0.16     0.29     6.61     0  02:46        0.29
  WS02004409           JUNCTION     0.35     0.66     6.43     0  02:46        0.66
  WS02004410           JUNCTION     0.38     0.68     6.40     0  02:46        0.68
  WS02004411           JUNCTION     0.40     0.69     6.37     0  02:47        0.69
  WS02004412           JUNCTION     0.43     0.70     6.34     0  02:47        0.69
  WS02004413           JUNCTION     0.59     0.85     6.32     0  02:47        0.85
  WS02006109           JUNCTION     0.60     2.64     9.26     0  02:26        2.64
  WS02006110           JUNCTION     0.61     2.76     9.34     0  02:26        2.76
  WS02006111           JUNCTION     0.16     1.67     8.37     0  00:00        0.56
  WS02006112           JUNCTION     0.72     2.68     8.56     0  00:00        1.29
  WS02006113           JUNCTION     0.24     1.50     8.40     0  00:00        0.46
  WS02006115           JUNCTION     0.44     1.69     7.83     0  00:00        0.86
  WS02006116           JUNCTION     0.53     1.11     7.15     0  00:00        0.85
  WS02006228           JUNCTION     0.59     3.03     9.68     0  02:26        3.03
  WS02006229           JUNCTION     0.56     2.80     9.49     0  02:26        2.80
  WS02006230           JUNCTION     0.55     1.53     8.28     0  02:26        1.18
  WS02006231           JUNCTION     0.35     1.16     8.28     0  02:15        0.94
  WS02006232           JUNCTION     0.48     1.51     8.55     0  02:25        1.14
  WS02006234           JUNCTION     0.40     1.86     9.02     0  02:25        1.16
  WS02006235           JUNCTION     0.43     1.85     9.01     0  02:25        1.26
  WS02006238           JUNCTION     0.46     1.89     9.04     0  02:25        1.30
  WS02006239           JUNCTION     0.42     1.78     8.99     0  02:25        1.29
  WS02006240           JUNCTION     0.40     1.65     8.94     0  02:25        1.28
  WS02006242           JUNCTION     0.46     1.55     8.82     0  02:16        1.55
  WS02006243           JUNCTION     0.38     1.48     8.90     0  02:16        1.48
  WS02006245           JUNCTION     0.38     1.56     9.04     0  02:16        1.56
  WS02006247           JUNCTION     0.40     1.47     8.97     0  02:16        1.47
  WS02006248           JUNCTION     0.36     1.10     8.69     0  02:15        1.10
  WS02006249           JUNCTION     0.39     1.09     8.69     0  02:08        1.09
  WS02006251           JUNCTION     0.38     1.39     9.06     0  02:08        1.23
  WS02006252           JUNCTION     0.27     1.50     9.74     0  02:03        1.50
  WS02006256           JUNCTION     0.84     2.35     9.28     0  00:10        2.35
  WSF200               JUNCTION     0.15     0.29     5.52     0  02:48        0.29
  YS02001580           JUNCTION     0.09     1.05     9.59     0  01:58        0.77
  YS02001583           JUNCTION     0.12     1.14     9.64     0  01:58        0.82
  YS02001586           JUNCTION     0.20     1.13     9.30     0  01:58        1.13
  YS02001590           JUNCTION     0.30     1.40     9.26     0  01:58        1.38
  YS02001593           JUNCTION     0.24     1.35     9.21     0  01:58        1.28
  YS02001596           JUNCTION     0.32     1.70     9.11     0  01:58        1.65
  YS02001600           JUNCTION     0.39     1.87     9.00     0  01:56        1.87
  YS02001601           JUNCTION     0.58     2.06     8.90     0  01:56        2.06
  YS02001602           JUNCTION     0.49     1.87     8.77     0  01:56        1.87
  YS02001605           JUNCTION     0.46     1.78     8.68     0  01:57        1.78
  YS02001607           JUNCTION     0.44     1.65     8.49     0  02:00        1.64
  YS02001610           JUNCTION     0.48     1.68     8.48     0  01:57        1.68
  YS02001613           JUNCTION     0.44     1.68     8.52     0  01:57        1.65
  YS02001616           JUNCTION     0.38     1.61     8.52     0  01:57        1.58
  YS02001619           JUNCTION     0.36     1.61     8.54     0  01:57        1.57
  YS02001622           JUNCTION     0.34     1.62     8.52     0  01:57        1.55
  YS02001625           JUNCTION     0.59     1.78     8.38     0  01:57        1.78
  YS02001629           JUNCTION     0.47     1.85     8.40     0  01:57        1.85
  YS02001633           JUNCTION     0.54     2.04     8.50     0  02:01        1.96
  YS02001641           JUNCTION     0.51     1.96     8.40     0  02:01        1.93
  YS02001644           JUNCTION     0.51     1.92     8.35     0  02:01        1.92
  YS02001647           JUNCTION     0.29     1.80     8.41     0  02:02        1.66
  YS02001649           JUNCTION     0.33     2.05     8.44     0  02:02        1.80
  YS02001652           JUNCTION     0.21     2.16     8.76     0  02:02        1.62
  YS02001655           JUNCTION     0.16     2.20     9.05     0  02:02        1.40
  YS02001658           JUNCTION     0.11     2.30     9.44     0  02:02        1.14
  YS02001661           JUNCTION     0.14     0.92     8.32     0  02:02        0.91
  YS02001664           JUNCTION     0.06     0.29     8.21     0  02:01        0.28
  YS02001745           JUNCTION     0.06     0.64     8.16     0  02:02        0.49
  YS02001748           JUNCTION     0.10     2.22     9.30     0  02:02        1.00
  YS02001751           JUNCTION     0.13     2.20     9.08     0  02:01        1.18
  YS02001754           JUNCTION     0.18     2.20     8.81     0  02:01        1.44
  YS02001757           JUNCTION     0.33     2.03     8.29     0  02:01        1.76
  YS02001759           JUNCTION     0.27     1.99     8.36     0  02:02        1.72
  YS02001762           JUNCTION     0.26     2.10     8.50     0  02:00        1.72
  YS02001765           JUNCTION     0.24     2.10     8.55     0  02:00        1.67
  YS02001767           JUNCTION     0.24     2.03     8.52     0  02:00        1.66
  YS02001770           JUNCTION     0.26     1.95     8.44     0  02:00        1.70
  YS02001774           JUNCTION     0.32     2.05     8.47     0  02:00        1.84
  YS02001779           JUNCTION     0.16     1.68     8.37     0  02:00        1.68
  YS02001783           JUNCTION     0.24     1.64     7.78     0  02:00        1.23
  YS02001784           JUNCTION     0.25     1.34     7.41     0  02:00        1.13
  YS02001786           JUNCTION     0.21     1.14     7.17     0  02:00        0.88
  YS02001788           JUNCTION     0.15     0.62     6.60     0  02:01        0.62
  YS02001790           JUNCTION     0.18     0.72     6.36     0  02:07        0.70
  YS02001791           JUNCTION     0.11     0.44     5.91     0  02:02        0.43
  YS02001793           JUNCTION     0.06     0.29     5.13     0  02:10        0.29
  YS02001882           JUNCTION     0.30     1.70     8.42     0  02:00        1.62
  YS02001884           JUNCTION     0.39     1.79     8.40     0  02:00        1.72
  YS02001887           JUNCTION     0.46     1.84     8.38     0  02:00        1.81
  YS02001890           JUNCTION     0.48     1.81     8.32     0  02:00        1.81
  YS02001895           JUNCTION     0.27     1.57     8.31     0  02:00        1.55
  YS02001898           JUNCTION     0.28     1.56     8.30     0  02:00        1.55
  YS02001901           JUNCTION     0.39     1.68     8.29     0  02:00        1.68
  YS02001904           JUNCTION     0.37     1.64     8.27     0  02:01        1.63
  YS02001907           JUNCTION     0.66     1.96     8.25     0  02:00        1.96
  YS02001910           JUNCTION     0.48     2.03     8.54     0  02:00        1.81
  YS02001915           JUNCTION     0.30     1.92     8.64     0  02:01        1.67
  YS02001918           JUNCTION     0.15     1.81     8.88     0  02:00        1.34
  YS02001920           JUNCTION     0.22     2.14     9.15     0  02:01        1.42
  YS02001923           JUNCTION     0.12     2.03     9.29     0  02:01        1.17
  YS02001926           JUNCTION     0.16     1.90     9.35     0  02:01        1.00
  YS02001929           JUNCTION     0.09     1.78     9.47     0  02:01        0.74
  YS02006553           JUNCTION     0.66     2.09     8.37     0  02:00        1.97
  YS02006556           JUNCTION     0.64     2.19     8.50     0  02:00        1.94
  YS02006558           JUNCTION     0.67     2.27     8.53     0  02:00        1.98
  YS02006561           JUNCTION     0.15     1.50     8.16     0  02:00        0.90
  YS02163301           JUNCTION     0.49     1.94     8.45     0  02:01        1.89
  YS02163601           JUNCTION     0.57     2.06     8.46     0  02:01        2.00
  YS02164001           JUNCTION     0.50     1.98     8.44     0  02:01        1.92
  CC-1                 OUTFALL      0.00     0.00     0.00     0  00:00        0.00
  CC-2                 OUTFALL      0.00     0.00     0.00     0  00:00        0.00
  JK-1                 OUTFALL      0.00     0.00     0.00     0  00:00        0.00
  JK-2                 OUTFALL      0.00     0.00     0.00     0  00:00        0.00
  WSC                  OUTFALL      0.16     0.30     0.97     0  02:50        0.30
  CC-storage           STORAGE      0.74     1.41     6.91     0  02:23        1.41
  JK-storage           STORAGE      1.48     4.23     5.03     0  02:10        4.18
  
  
  *******************
  Node Inflow Summary
  *******************
  
  -------------------------------------------------------------------------------------------------
                                  Maximum  Maximum                  Lateral       Total        Flow
                                  Lateral    Total  Time of Max      Inflow      Inflow     Balance
                                   Inflow   Inflow   Occurrence      Volume      Volume       Error
  Node                 Type           LPS      LPS  days hr:min    10^6 ltr    10^6 ltr     Percent
  -------------------------------------------------------------------------------------------------
  WS02003060           JUNCTION     16.53   549.01     0  02:48       0.476        3.83       0.053
  WS02003066           JUNCTION      0.00   532.28     0  02:48           0        3.35       0.038
  WS02003067           JUNCTION      0.00   532.19     0  02:47           0        3.36       0.119
  WS02003069           JUNCTION      0.32   549.31     0  02:48     0.00922        3.83       0.090
  WS02003072           JUNCTION      0.00   548.96     0  02:49           0        3.83       0.164
  WS02003073           JUNCTION      1.82   550.43     0  02:49      0.0524        3.88       0.128
  WS02004401           JUNCTION      0.00  1786.04     0  00:00           0        3.46       0.308
  WS02004402           JUNCTION      0.00  1248.69     0  00:01           0        3.45       0.310
  WS02004403           JUNCTION      0.00   929.44     0  00:01           0        3.44       0.305
  WS02004404           JUNCTION      0.00   877.02     0  00:01           0        3.43       0.258
  WS02004405           JUNCTION      0.00   827.31     0  00:01           0        3.42       0.336
  WS02004406           JUNCTION      0.00   768.45     0  00:02           0        3.41       0.620
  WS02004407           JUNCTION      0.00   535.23     0  02:45           0        3.39       0.025
  WS02004409           JUNCTION      0.00   534.89     0  02:46           0        3.39       0.068
  WS02004410           JUNCTION      0.00   533.94     0  02:46           0        3.39       0.120
  WS02004411           JUNCTION      0.00   533.31     0  02:46           0        3.38       0.155
  WS02004412           JUNCTION      0.00   532.82     0  02:47           0        3.38       0.208
  WS02004413           JUNCTION      0.00   532.51     0  02:47           0        3.37       0.388
  WS02006109           JUNCTION      0.00  1446.81     0  00:00           0        3.35      -0.253
  WS02006110           JUNCTION      0.00   581.48     0  02:26           0        3.33      -1.629
  WS02006111           JUNCTION      0.00  1180.41     0  00:00           0        3.39      -1.256
  WS02006112           JUNCTION      0.00  2307.30     0  00:00           0        3.43      -0.021
  WS02006113           JUNCTION      0.00   628.85     0  02:26           0        3.35      -1.131
  WS02006115           JUNCTION      0.00   953.54     0  00:00           0         3.4      -1.053
  WS02006116           JUNCTION      0.00  1264.47     0  00:00           0        3.44      -0.701
  WS02006228           JUNCTION      0.00   869.18     0  00:00           0        3.34      -0.128
  WS02006229           JUNCTION      0.00   555.47     0  02:25           0        3.32      -0.050
  WS02006230           JUNCTION     10.28   706.67     0  00:00       0.296        3.31      -0.021
  WS02006231           JUNCTION      0.00   572.24     0  02:50           0           3       0.036
  WS02006232           JUNCTION      0.00   571.45     0  02:50           0           3       0.209
  WS02006234           JUNCTION      0.00   566.65     0  02:50           0        2.99      -0.223
  WS02006235           JUNCTION      0.00   590.86     0  01:53           0        3.04       0.285
  WS02006238           JUNCTION      0.00   422.90     0  02:45           0        2.43      -0.173
  WS02006239           JUNCTION      0.00   423.68     0  02:52           0        2.39      -0.276
  WS02006240           JUNCTION      0.00   421.68     0  02:52           0        2.37      -0.016
  WS02006242           JUNCTION      0.00   420.35     0  02:52           0        2.37       0.022
  WS02006243           JUNCTION      0.00   419.18     0  02:52           0        2.36      -0.358
  WS02006245           JUNCTION      0.00   418.90     0  02:45           0        2.37       0.665
  WS02006247           JUNCTION      0.00   419.72     0  02:45           0        2.37      -0.004
  WS02006248           JUNCTION      0.00   420.48     0  02:45           0        2.37       0.058
  WS02006249           JUNCTION      0.00   473.56     0  01:50           0        2.52       0.669
  WS02006251           JUNCTION      0.00   412.10     0  02:16           0        2.52       0.060
  WS02006252           JUNCTION      0.00   400.00     0  00:05           0         2.5      -0.526
  WS02006256           JUNCTION      0.00   300.00     0  00:10           0       0.881      -2.220
  WSF200               JUNCTION      0.00   532.34     0  02:48           0        3.35       0.010
  YS02001580           JUNCTION      0.00   128.40     0  01:57           0      0.0043       0.508
  YS02001583           JUNCTION      0.00   208.98     0  01:58           0      0.0149      -7.789
  YS02001586           JUNCTION    473.76   473.76     0  02:04        1.09         1.1       0.129
  YS02001590           JUNCTION      0.00   318.20     0  02:04           0       0.996      -0.044
  YS02001593           JUNCTION      0.00   318.02     0  02:10           0       0.996       0.018
  YS02001596           JUNCTION      0.00   317.89     0  02:05           0       0.996      -0.009
  YS02001600           JUNCTION      0.00   317.96     0  02:10           0       0.996       0.012
  YS02001601           JUNCTION    837.90  1155.38     0  02:03        1.47        2.46       0.035
  YS02001602           JUNCTION      0.00   533.54     0  01:57           0        1.83       0.021
  YS02001605           JUNCTION      0.00   533.38     0  01:57           0        1.77       0.023
  YS02001607           JUNCTION      0.00   532.98     0  01:57           0        1.76       0.107
  YS02001610           JUNCTION      0.00   536.97     0  01:57           0        1.76       0.112
  YS02001613           JUNCTION      0.00   543.57     0  01:57           0        1.57       0.089
  YS02001616           JUNCTION      0.00   550.64     0  01:57           0        1.57       0.022
  YS02001619           JUNCTION    818.25   952.65     0  01:57        1.68        3.25      -0.010
  YS02001622           JUNCTION      0.00   960.30     0  01:57           0        3.25      -0.008
  YS02001625           JUNCTION      0.00   968.27     0  01:57           0        3.25       0.254
  YS02001629           JUNCTION      0.00   969.89     0  01:57           0        2.91       0.009
  YS02001633           JUNCTION    645.94  1437.73     0  01:59         1.1        4.01       0.077
  YS02001641           JUNCTION      0.00  1430.51     0  01:59           0        4.01       0.067
  YS02001644           JUNCTION    554.80  1868.48     0  01:59       0.906        4.91       0.062
  YS02001647           JUNCTION      0.00  1866.94     0  01:59           0         4.9       0.006
  YS02001649           JUNCTION      0.00  2153.79     0  01:59           0        5.76      -0.001
  YS02001652           JUNCTION      0.00   632.02     0  02:03           0       0.861      -0.115
  YS02001655           JUNCTION      0.00   631.04     0  02:03           0       0.862       0.038
  YS02001658           JUNCTION      0.00   796.56     0  02:02           0       0.861      -0.092
  YS02001661           JUNCTION      0.00   571.88     0  02:01           0       0.862       0.045
  YS02001664           JUNCTION    562.26   562.26     0  02:02       0.862       0.862      -0.012
  YS02001745           JUNCTION    345.30   348.76     0  02:02       0.497       0.497       0.317
  YS02001748           JUNCTION      0.00   602.24     0  02:02           0       0.497      -0.426
  YS02001751           JUNCTION      0.00   442.50     0  02:05           0       0.504       0.023
  YS02001754           JUNCTION      0.00   433.48     0  02:00           0        0.51      -0.238
  YS02001757           JUNCTION      0.00  3354.04     0  02:03           0        8.06       0.057
  YS02001759           JUNCTION    502.41  1200.78     0  02:01       0.724        1.79      -0.025
  YS02001762           JUNCTION      0.00   699.82     0  02:01           0        1.06      -0.004
  YS02001765           JUNCTION      0.00   697.73     0  02:01           0        1.06       0.007
  YS02001767           JUNCTION      0.00   695.78     0  02:01           0        1.06      -0.012
  YS02001770           JUNCTION    688.98   692.62     0  02:01        1.07        1.11      -0.029
  YS02001774           JUNCTION      0.00   449.60     0  02:00           0      0.0634       1.631
  YS02001779           JUNCTION      0.00   456.34     0  02:00           0       0.021      -1.529
  YS02001783           JUNCTION      0.00  1153.43     0  02:01           0        2.85      -0.003
  YS02001784           JUNCTION      0.00  1153.43     0  02:01           0        2.85      -0.000
  YS02001786           JUNCTION      0.00  1153.36     0  02:01           0        2.85       0.007
  YS02001788           JUNCTION      0.00  1156.13     0  02:01           0        2.85       0.001
  YS02001790           JUNCTION      0.00  1169.60     0  02:01           0        2.85       0.010
  YS02001791           JUNCTION      0.00  1272.60     0  02:07           0        2.85      -0.019
  YS02001793           JUNCTION      0.00  1226.12     0  02:04           0        2.85       0.003
  YS02001882           JUNCTION      0.00    50.83     0  01:59           0      0.0124       3.348
  YS02001884           JUNCTION      0.00    92.37     0  01:58           0      0.0481       3.835
  YS02001887           JUNCTION    540.30   540.74     0  02:01       0.743       0.777       0.487
  YS02001890           JUNCTION      0.00   540.46     0  02:01           0       0.737       0.593
  YS02001895           JUNCTION      0.00   514.77     0  02:02           0        0.73       0.184
  YS02001898           JUNCTION      0.00   514.72     0  02:02           0       0.729      -0.070
  YS02001901           JUNCTION      0.00   519.83     0  01:59           0        0.73       0.362
  YS02001904           JUNCTION      0.00   523.10     0  01:59           0       0.732       0.307
  YS02001907           JUNCTION      0.00  1528.75     0  02:02           0        2.17       0.751
  YS02001910           JUNCTION      0.00  1014.84     0  02:02           0        1.44       0.439
  YS02001915           JUNCTION    563.66  1014.91     0  02:02       0.925        1.49       0.023
  YS02001918           JUNCTION      0.00   503.80     0  02:00           0       0.596      -0.027
  YS02001920           JUNCTION      0.00   476.41     0  02:00           0       0.576       0.069
  YS02001923           JUNCTION      0.00   594.02     0  02:00           0       0.558      -0.100
  YS02001926           JUNCTION      0.00   864.90     0  02:01           0       0.539      -0.107
  YS02001929           JUNCTION    288.54   731.83     0  02:00       0.521       0.526      -0.041
  YS02006553           JUNCTION      0.00   791.24     0  02:11           0        1.88       0.591
  YS02006556           JUNCTION      0.00   791.18     0  02:11           0        1.89       0.388
  YS02006558           JUNCTION    686.45  1177.05     0  02:00        1.02        2.88       0.107
  YS02006561           JUNCTION      0.00  1176.52     0  02:00           0        2.85      -0.002
  YS02163301           JUNCTION      0.00   936.31     0  01:59           0        2.91       0.052
  YS02163601           JUNCTION      0.00  1435.55     0  01:59           0        4.01       0.120
  YS02164001           JUNCTION      0.00  1432.75     0  01:59           0           4       0.053
  CC-1                 OUTFALL       0.00   683.00     0  00:10           0        2.93       0.000
  CC-2                 OUTFALL       0.00   683.00     0  00:05           0        3.47       0.000
  JK-1                 OUTFALL       0.00  1000.00     0  00:10           0        1.57       0.000
  JK-2                 OUTFALL       0.00  1000.00     0  01:45           0       0.528       0.000
  WSC                  OUTFALL       0.00   549.83     0  02:50           0        3.87       0.000
  CC-storage           STORAGE       0.00  3353.88     0  02:03           0        10.3      -0.294
  JK-storage           STORAGE       0.00  1276.38     0  02:05           0           3      -0.580
  
  
  **********************
  Node Surcharge Summary
  **********************
  
  Surcharging occurs when water rises above the top of the highest conduit.
  ---------------------------------------------------------------------
                                               Max. Height   Min. Depth
                                   Hours       Above Crown    Below Rim
  Node                 Type      Surcharged         Meters       Meters
  ---------------------------------------------------------------------
  WS02004404           JUNCTION        0.01          0.003        2.777
  WS02006109           JUNCTION        1.17          1.820        0.000
  WS02006110           JUNCTION        0.43          1.850        0.000
  WS02006111           JUNCTION        0.01          0.856        1.014
  WS02006112           JUNCTION        0.53          1.680        0.000
  WS02006113           JUNCTION        0.01          0.705        1.225
  WS02006115           JUNCTION        0.01          0.682        1.568
  WS02006116           JUNCTION        0.01          0.053        2.237
  WS02006228           JUNCTION        1.16          2.200        0.000
  WS02006229           JUNCTION        1.18          1.995        0.455
  WS02006230           JUNCTION        0.43          0.452        1.118
  WS02006231           JUNCTION        0.53          0.449        1.081
  WS02006232           JUNCTION        1.24          0.810        0.670
  WS02006234           JUNCTION        0.72          1.139        0.101
  WS02006235           JUNCTION        1.16          1.136        0.154
  WS02006238           JUNCTION        1.18          1.174        0.256
  WS02006239           JUNCTION        1.16          1.044        0.246
  WS02006240           JUNCTION        1.17          0.940        0.450
  WS02006242           JUNCTION        1.26          0.820        0.000
  WS02006243           JUNCTION        1.17          0.770        0.000
  WS02006245           JUNCTION        1.17          0.850        0.000
  WS02006247           JUNCTION        1.17          0.760        0.000
  WS02006248           JUNCTION        1.14          0.380        0.000
  WS02006249           JUNCTION        1.16          0.390        0.000
  WS02006251           JUNCTION        0.55          0.364        0.816
  WS02006252           JUNCTION        1.58          1.100        0.000
  WS02006256           JUNCTION        5.15          2.050        0.000
  YS02001580           JUNCTION        0.37          0.450        0.000
  YS02001583           JUNCTION        0.37          0.500        0.000
  YS02001586           JUNCTION        0.48          0.510        0.000
  YS02001590           JUNCTION        0.55          0.748        0.002
  YS02001593           JUNCTION        0.55          0.729        0.111
  YS02001596           JUNCTION        0.64          0.966        0.104
  YS02001600           JUNCTION        0.76          1.190        0.000
  YS02001601           JUNCTION        1.14          1.440        0.000
  YS02001602           JUNCTION        1.00          1.270        0.000
  YS02001605           JUNCTION        0.94          1.180        0.000
  YS02001607           JUNCTION        0.50          0.645        0.035
  YS02001610           JUNCTION        0.52          0.680        0.000
  YS02001613           JUNCTION        0.50          0.678        0.022
  YS02001616           JUNCTION        0.46          0.610        0.000
  YS02001619           JUNCTION        0.45          0.610        0.000
  YS02001622           JUNCTION        0.44          0.620        0.000
  YS02001625           JUNCTION        0.60          0.780        0.000
  YS02001629           JUNCTION        0.40          0.470        0.000
  YS02001633           JUNCTION        0.61          1.023        0.037
  YS02001641           JUNCTION        0.55          0.962        0.138
  YS02001644           JUNCTION        0.50          0.920        0.000
  YS02001647           JUNCTION        0.33          0.799        0.101
  YS02001649           JUNCTION        0.41          1.050        0.000
  YS02001652           JUNCTION        0.25          1.130        0.000
  YS02001655           JUNCTION        0.14          1.200        0.000
  YS02001658           JUNCTION        0.03          1.300        0.000
  YS02001748           JUNCTION        0.01          1.143        0.047
  YS02001751           JUNCTION        0.06          1.200        0.000
  YS02001754           JUNCTION        0.16          1.150        0.000
  YS02001757           JUNCTION        0.45          1.031        0.179
  YS02001759           JUNCTION        0.37          0.993        0.217
  YS02001762           JUNCTION        0.34          1.096        0.054
  YS02001765           JUNCTION        0.30          1.100        0.000
  YS02001767           JUNCTION        0.27          1.030        0.000
  YS02001770           JUNCTION        0.26          0.920        0.000
  YS02001774           JUNCTION        0.32          1.050        0.000
  YS02001779           JUNCTION        0.17          0.680        0.000
  YS02001783           JUNCTION        0.33          0.838        0.762
  YS02001784           JUNCTION        0.31          0.540        0.950
  YS02001786           JUNCTION        0.23          0.336        1.094
  YS02001882           JUNCTION        0.29          0.702        0.128
  YS02001884           JUNCTION        0.30          0.728        0.142
  YS02001887           JUNCTION        0.32          0.788        0.162
  YS02001890           JUNCTION        0.34          0.760        0.000
  YS02001895           JUNCTION        0.28          0.566        0.184
  YS02001898           JUNCTION        0.27          0.534        0.206
  YS02001901           JUNCTION        0.31          0.678        0.192
  YS02001904           JUNCTION        0.31          0.638        0.212
  YS02001907           JUNCTION        0.50          0.950        0.000
  YS02001910           JUNCTION        0.36          1.028        0.072
  YS02001915           JUNCTION        0.29          0.917        0.083
  YS02001918           JUNCTION        0.21          0.810        0.000
  YS02001920           JUNCTION        0.22          1.140        0.000
  YS02001923           JUNCTION        0.01          0.820        0.000
  YS02001926           JUNCTION        0.01          0.900        0.000
  YS02001929           JUNCTION        0.01          0.780        0.000
  YS02006553           JUNCTION        0.52          1.086        0.104
  YS02006556           JUNCTION        0.43          1.153        0.197
  YS02006558           JUNCTION        0.42          1.166        0.234
  YS02006561           JUNCTION        0.18          0.704        0.446
  YS02163301           JUNCTION        0.60          0.937        0.093
  YS02163601           JUNCTION        0.64          1.064        0.016
  YS02164001           JUNCTION        0.56          0.978        0.122
  
  
  *********************
  Node Flooding Summary
  *********************
  
  Flooding refers to all water that overflows a node, whether it ponds or not.
  --------------------------------------------------------------------------
                                                             Total   Maximum
                                 Maximum   Time of Max       Flood    Ponded
                        Hours       Rate    Occurrence      Volume     Depth
  Node                 Flooded       LPS   days hr:min    10^6 ltr    Meters
  --------------------------------------------------------------------------
  WS02006109              0.01      7.14      0  02:26       0.000     0.000
  WS02006110              0.01      4.19      0  02:26       0.000     0.000
  WS02006112              0.01   1405.86      0  00:00       0.047     0.000
  WS02006228              0.01      4.16      0  02:26       0.000     0.000
  WS02006242              0.01      8.46      0  02:25       0.000     0.000
  WS02006243              0.01      1.34      0  02:16       0.000     0.000
  WS02006245              0.01      2.06      0  02:16       0.000     0.000
  WS02006247              0.01      2.44      0  02:16       0.000     0.000
  WS02006248              0.01     10.04      0  02:16       0.000     0.000
  WS02006249              0.53    100.77      0  02:08       0.128     0.000
  WS02006252              0.01      6.70      0  02:16       0.000     0.000
  WS02006256              0.82    289.98      0  02:25       0.277     0.000
  YS02001580              0.01     87.89      0  01:58       0.000     0.000
  YS02001583              0.01     99.80      0  01:58       0.000     0.000
  YS02001586              0.28    156.17      0  02:04       0.090     0.000
  YS02001600              0.01      3.24      0  01:58       0.000     0.000
  YS02001601              0.42    757.55      0  02:03       0.636     0.000
  YS02001602              0.32     61.96      0  02:10       0.061     0.000
  YS02001605              0.01      4.83      0  01:57       0.000     0.000
  YS02001610              0.26    315.38      0  02:04       0.191     0.000
  YS02001616              0.01     13.75      0  01:57       0.000     0.000
  YS02001619              0.01     96.95      0  01:57       0.000     0.000
  YS02001622              0.01    149.03      0  01:57       0.000     0.000
  YS02001625              0.23    834.61      0  02:04       0.324     0.000
  YS02001629              0.04    221.18      0  01:57       0.005     0.000
  YS02001644              0.02     60.21      0  02:02       0.002     0.000
  YS02001649              0.01      8.18      0  02:02       0.000     0.000
  YS02001652              0.01     56.91      0  02:02       0.000     0.000
  YS02001655              0.01     57.42      0  02:02       0.000     0.000
  YS02001658              0.01    433.70      0  02:02       0.000     0.000
  YS02001751              0.01    296.75      0  02:01       0.000     0.000
  YS02001754              0.01     74.36      0  02:01       0.000     0.000
  YS02001765              0.01     39.94      0  02:00       0.000     0.000
  YS02001767              0.01     61.01      0  02:00       0.000     0.000
  YS02001770              0.01     89.21      0  02:00       0.000     0.000
  YS02001774              0.01    138.78      0  02:00       0.000     0.000
  YS02001779              0.01    397.67      0  02:00       0.003     0.000
  YS02001890              0.03     31.35      0  02:01       0.002     0.000
  YS02001907              0.17   1062.19      0  02:02       0.291     0.000
  YS02001918              0.01    139.42      0  02:01       0.002     0.000
  YS02001920              0.01     15.49      0  02:01       0.000     0.000
  YS02001923              0.01    122.84      0  02:01       0.000     0.000
  YS02001926              0.01    750.43      0  02:01       0.002     0.000
  YS02001929              0.01    437.21      0  02:01       0.003     0.000
  
  
  **********************
  Storage Volume Summary
  **********************
  
  --------------------------------------------------------------------------------------------------
                         Average     Avg  Evap Exfil       Maximum     Max    Time of Max    Maximum
                          Volume    Pcnt  Pcnt  Pcnt        Volume    Pcnt     Occurrence    Outflow
  Storage Unit           1000 m3    Full  Loss  Loss       1000 m3    Full    days hr:min        LPS
  --------------------------------------------------------------------------------------------------
  CC-storage               2.068      32     0     0         3.933      61       0  02:23    1766.00
  JK-storage               0.074      25     0     0         0.213      73       0  02:10    2300.00
  
  
  ***********************
  Outfall Loading Summary
  ***********************
  
  -----------------------------------------------------------
                         Flow       Avg       Max       Total
                         Freq      Flow      Flow      Volume
  Outfall Node           Pcnt       LPS       LPS    10^6 ltr
  -----------------------------------------------------------
  CC-1                  32.17    683.00    683.00       2.929
  CC-2                  36.07    683.00    683.00       3.473
  JK-1                  11.85   1000.00   1000.00       1.567
  JK-2                   4.60   1000.00   1000.00       0.528
  WSC                   99.99    212.82    549.83       3.872
  -----------------------------------------------------------
  System                36.94   3578.82    549.83      12.369
  
  
  ********************
  Link Flow Summary
  ********************
  
  -----------------------------------------------------------------------------
                                 Maximum  Time of Max   Maximum    Max/    Max/
                                  |Flow|   Occurrence   |Veloc|    Full    Full
  Link                 Type          LPS  days hr:min     m/sec    Flow   Depth
  -----------------------------------------------------------------------------
  1                    CONDUIT    549.83     0  02:50      2.82    0.19    0.30
  WS02003060WS02003069 CONDUIT    548.99     0  02:48      1.64    0.21    0.34
  WS02003066WSF200     CONDUIT    532.34     0  02:48      2.85    0.09    0.22
  WS02003067WS02003066 CONDUIT    532.28     0  02:48      1.20    0.17    0.41
  WS02003069WS02003072 CONDUIT    548.96     0  02:49      1.37    0.26    0.39
  WS02003072WS02003073 CONDUIT    548.61     0  02:49      1.43    1.18    0.37
  WS02004401WS02004402 CONDUIT   1248.69     0  00:01      2.52    1.50    0.89
  WS02004402WS02004403 CONDUIT    929.44     0  00:01      2.21    1.34    0.91
  WS02004403WS02004404 CONDUIT    877.02     0  00:01      2.01    0.63    0.96
  WS02004404WS02004405 CONDUIT    827.31     0  00:01      2.30    8.11    0.97
  WS02004405WS02004406 CONDUIT    768.45     0  00:02      2.19    1.52    0.96
  WS02004406WS02004407 CONDUIT    535.23     0  02:45      1.04    0.24    0.63
  WS02004407WS02004409 CONDUIT    534.89     0  02:46      2.06    0.19    0.48
  WS02004409WS02004410 CONDUIT    533.94     0  02:46      1.39    0.69    0.67
  WS02004410WS02004411 CONDUIT    533.31     0  02:46      1.32    0.73    0.68
  WS02004411WS02004412 CONDUIT    532.82     0  02:47      1.29    0.76    0.69
  WS02004412WS02004413 CONDUIT    532.51     0  02:47      1.25    0.36    0.77
  WS02004413WS02003067 CONDUIT    532.19     0  02:47      1.10    0.23    0.59
  WS02006109WS02006110 CONDUIT   1446.81     0  00:00      2.88    2.78    1.00
  WS02006110WS02006113 CONDUIT    628.85     0  02:26      1.52    0.57    1.00
  WS02006111WS02006112 CONDUIT   2307.30     0  00:00      9.18    1.10    1.00
  WS02006112WS02006115 CONDUIT    953.54     0  00:00      1.24    0.56    1.00
  WS02006113WS02006111 CONDUIT   1180.41     0  00:00      2.49    1.41    1.00
  WS02006115WS02006116 CONDUIT   1264.47     0  00:00      1.74    1.62    1.00
  WS02006116WS02004401 CONDUIT   1786.04     0  00:00      2.94    2.46    0.86
  WS02006228WS02006109 CONDUIT    869.18     0  00:00      1.91    3.80    1.00
  WS02006229WS02006228 CONDUIT    555.16     0  02:25      1.10    1.84    1.00
  WS02006230WS02006229 CONDUIT    696.39     0  00:00      1.89   15.50    1.00
  WS02006231WS02006230 CONDUIT    579.29     0  02:25      1.91    8.79    1.00
  WS02006232WS02006231 CONDUIT    572.24     0  02:50      1.80    1.20    1.00
  WS02006234WS02006232 CONDUIT    571.45     0  02:50      1.48    1.16    1.00
  WS02006235WS02006234 CONDUIT    566.65     0  02:50      1.51    5.98    1.00
  WS02006238WS02006235 CONDUIT    424.21     0  02:52      1.33    0.95    1.00
  WS02006239WS02006238 CONDUIT    422.90     0  02:45      1.20    1.35    1.00
  WS02006240WS02006239 CONDUIT    423.68     0  02:52      1.29    1.33    1.00
  WS02006242WS02006240 CONDUIT    421.68     0  02:52      1.18    1.67    1.00
  WS02006243WS02006242 CONDUIT    420.35     0  02:52      1.43    0.90    1.00
  WS02006245WS02006243 CONDUIT    419.18     0  02:52      1.44    1.24    1.00
  WS02006247WS02006245 CONDUIT    418.90     0  02:45      1.41    3.32    1.00
  WS02006248WS02006247 CONDUIT    419.72     0  02:45      1.42    0.91    1.00
  WS02006249WS02006248 CONDUIT    420.48     0  02:45      1.38    2.30    1.00
  WS02006251WS02006249 CONDUIT    473.56     0  01:50      1.96    1.37    1.00
  WS02006252WS02006251 CONDUIT    412.10     0  02:16     25.05    1.51    1.00
  WS02006256WS02006235 CONDUIT    284.92     0  04:25      4.16    3.02    1.00
  WSF200WS02003060     CONDUIT    532.48     0  02:48      2.06    0.12    0.28
  YS02001580YS02001583 CONDUIT    128.40     0  01:57      0.78    0.50    1.00
  YS02001583YS02001586 CONDUIT    183.76     0  01:57      0.77    0.28    1.00
  YS02001586YS02001590 CONDUIT    318.20     0  02:04      1.28    0.56    1.00
  YS02001590YS02001593 CONDUIT    318.02     0  02:10      1.12    2.00    1.00
  YS02001593YS02001596 CONDUIT    317.89     0  02:05      1.74    0.50    1.00
  YS02001596YS02001600 CONDUIT    317.96     0  02:10      1.21    0.62    1.00
  YS02001600YS02001601 CONDUIT    317.77     0  02:13      1.12    0.55    1.00
  YS02001601YS02001602 CONDUIT    533.54     0  01:57      1.89    1.93    1.00
  YS02001602YS02001605 CONDUIT    533.38     0  01:57      1.89   11.29    1.00
  YS02001605YS02001607 CONDUIT    532.98     0  01:57      1.89    2.92    1.00
  YS02001607YS02001610 CONDUIT    536.97     0  01:57      0.68    0.51    1.00
  YS02001610YS02001613 CONDUIT    543.57     0  01:57      0.69    0.63    1.00
  YS02001613YS02001616 CONDUIT    550.64     0  01:57      0.71    0.47    1.00
  YS02001616YS02001619 CONDUIT    517.83     0  01:57      0.66    0.90    1.00
  YS02001619YS02001622 CONDUIT    960.30     0  01:57      1.22    1.42    1.00
  YS02001622YS02001625 CONDUIT    968.27     0  01:57      1.23    0.52    1.00
  YS02001625YS02001629 CONDUIT    969.89     0  01:57      1.24    0.46    1.00
  YS02001629YS02163301 CONDUIT    936.31     0  01:59      1.19    1.15    1.00
  YS02001633YS02163601 CONDUIT   1435.55     0  01:59      1.83    1.51    1.00
  YS02001641YS02001644 CONDUIT   1429.31     0  01:59      1.82    4.62    1.00
  YS02001644YS02001647 CONDUIT   1866.94     0  01:59      2.42    1.10    1.00
  YS02001647YS02001649 CONDUIT   1880.29     0  01:59      2.41    0.99    1.00
  YS02001649YS02001757 CONDUIT   2147.86     0  01:59      2.74    1.30    1.00
  YS02001652YS02001649 CONDUIT    631.58     0  02:03      0.81    0.31    1.00
  YS02001655YS02001652 CONDUIT    632.02     0  02:03      1.34    0.31    1.00
  YS02001658YS02001655 CONDUIT    631.04     0  02:03      1.97    0.27    1.00
  YS02001661YS02001658 CONDUIT    796.56     0  02:02      2.41    0.31    0.92
  YS02001664YS02001661 CONDUIT    571.88     0  02:01      2.39    0.18    0.60
  YS02001745YS02001748 CONDUIT    602.24     0  02:02      2.25    0.23    0.74
  YS02001748YS02001751 CONDUIT    442.50     0  02:05      1.75    0.22    1.00
  YS02001751YS02001754 CONDUIT    401.62     0  02:03      1.46    0.19    1.00
  YS02001754YS02001757 CONDUIT    402.12     0  02:03      0.51    0.16    1.00
  YS02001757CaochengTiaoxuchi CONDUIT   3353.88     0  02:03      4.27    1.45    1.00
  YS02001759YS02001757 CONDUIT   1201.89     0  02:01      1.53    0.85    1.00
  YS02001762YS02001759 CONDUIT    701.71     0  02:01      0.89    0.81    1.00
  YS02001765YS02001762 CONDUIT    699.82     0  02:01      0.89    0.66    1.00
  YS02001767YS02001765 CONDUIT    697.73     0  02:01      0.89    0.88    1.00
  YS02001770YS02001767 CONDUIT    695.78     0  02:01      0.89    2.76    1.00
  YS02001774YS02001770 CONDUIT    449.60     0  02:00      0.57    0.29    1.00
  YS02001779YS02001774 CONDUIT    456.34     0  02:00      0.59    0.23    1.00
  YS02001783YS02001784 CONDUIT   1153.43     0  02:01      2.29    1.59    1.00
  YS02001784YS02001785 CONDUIT   1153.36     0  02:01      2.29    2.68    1.00
  YS02001786YS02001788 CONDUIT   1156.13     0  02:01      2.49    2.23    0.89
  YS02001788YS02001790 CONDUIT   1169.60     0  02:01      2.71    0.86    0.83
  YS02001790YS02001791 CONDUIT   1272.60     0  02:07      3.41    1.38    0.70
  YS02001791YS02001793 CONDUIT   1226.12     0  02:04      6.76    0.53    0.44
  YS02001793JiankangQianchi CONDUIT   1276.38     0  02:05      2.56    0.10    0.65
  YS02001882YS02001884 CONDUIT     50.83     0  01:59      0.14    0.06    1.00
  YS02001884YS02001887 CONDUIT     92.37     0  01:58      0.12    0.12    1.00
  YS02001887YS02001890 CONDUIT    540.46     0  02:01      0.69    0.92    1.00
  YS02001890YS02001895 CONDUIT    514.77     0  02:02      0.66    0.24    1.00
  YS02001895YS02001898 CONDUIT    514.72     0  02:02      0.66    0.89    1.00
  YS02001898YS02001901 CONDUIT    519.83     0  01:59      0.66    0.34    1.00
  YS02001901YS02001904 CONDUIT    523.10     0  01:59      0.67    0.81    1.00
  YS02001904YS02001907 CONDUIT    529.14     0  01:59      0.67    0.19    1.00
  YS02001907YS02006553 CONDUIT    791.24     0  02:11      0.88    0.93    1.00
  YS02001910YS02001907 CONDUIT   1015.00     0  02:02      1.29    0.57    1.00
  YS02001915YS02001910 CONDUIT   1014.84     0  02:02      1.29    0.50    1.00
  YS02001918YS02001915 CONDUIT    503.80     0  02:00      0.65    0.28    1.00
  YS02001920YS02001918 CONDUIT    476.41     0  02:00      0.63    0.46    1.00
  YS02001923YS02001920 CONDUIT    475.62     0  02:00      0.73    0.21    1.00
  YS02001926YS02001923 CONDUIT    627.40     0  02:00      1.04    0.90    1.00
  YS02001929YS02001926 CONDUIT    495.58     0  02:01      1.20    0.24    1.00
  YS02006553YS02006556 CONDUIT    791.18     0  02:11      1.01    0.68    1.00
  YS02006556YS02006558 CONDUIT    791.89     0  02:11      1.01    0.63    1.00
  YS02006558YS02006561 CONDUIT   1176.52     0  02:00      4.16    2.60    1.00
  YS02006561YS02001783 CONDUIT   1153.43     0  02:01      2.29    0.60    1.00
  YS02163301YS02001633 CONDUIT    937.46     0  01:59      1.19    0.88    1.00
  YS02163601YS02164001 CONDUIT   1432.75     0  01:59      1.82    1.27    1.00
  YS02164001YS02001641 CONDUIT   1430.51     0  01:59      1.82    1.95    1.00
  CC-R1                PUMP       683.00     0  00:10              1.00
  CC-R2                PUMP       683.00     0  00:05              1.00
  CC-S1                PUMP       200.00     0  00:05              1.00
  CC-S2                PUMP       200.00     0  00:05              1.00
  JK-R1                PUMP      1000.00     0  00:10              1.00
  JK-R2                PUMP      1000.00     0  01:45              1.00
  JK-S                 PUMP       300.00     0  00:10              1.00
  
  
  ***************************
  Flow Classification Summary
  ***************************
  
  -------------------------------------------------------------------------------------
                      Adjusted    ---------- Fraction of Time in Flow Class ---------- 
                       /Actual         Up    Down  Sub   Sup   Up    Down  Norm  Inlet 
  Conduit               Length    Dry  Dry   Dry   Crit  Crit  Crit  Crit  Ltd   Ctrl  
  -------------------------------------------------------------------------------------
  1                       1.00   0.00  0.00  0.00  0.00  1.00  0.00  0.00  0.63  0.00
  WS02003060WS02003069    1.00   0.00  0.00  0.00  0.94  0.06  0.00  0.00  0.80  0.00
  WS02003066WSF200        1.00   0.02  0.00  0.00  0.00  0.98  0.00  0.00  0.90  0.00
  WS02003067WS02003066    1.00   0.01  0.00  0.00  0.99  0.00  0.00  0.00  0.00  0.00
  WS02003069WS02003072    1.00   0.00  0.00  0.00  1.00  0.00  0.00  0.00  0.82  0.00
  WS02003072WS02003073    1.00   0.00  0.00  0.00  0.00  0.00  0.00  1.00  0.00  0.00
  WS02004401WS02004402    1.00   0.00  0.00  0.00  1.00  0.00  0.00  0.00  0.00  0.00
  WS02004402WS02004403    1.00   0.00  0.00  0.00  1.00  0.00  0.00  0.00  0.00  0.00
  WS02004403WS02004404    1.00   0.00  0.00  0.00  1.00  0.00  0.00  0.00  0.00  0.00
  WS02004404WS02004405    1.00   0.00  0.00  0.00  1.00  0.00  0.00  0.00  0.01  0.00
  WS02004405WS02004406    1.00   0.00  0.00  0.00  1.00  0.00  0.00  0.00  0.00  0.00
  WS02004406WS02004407    1.00   0.00  0.00  0.00  1.00  0.00  0.00  0.00  0.00  0.00
  WS02004407WS02004409    1.00   0.00  0.00  0.00  0.98  0.01  0.00  0.00  0.99  0.00
  WS02004409WS02004410    1.00   0.00  0.00  0.00  1.00  0.00  0.00  0.00  0.00  0.00
  WS02004410WS02004411    1.00   0.00  0.00  0.00  1.00  0.00  0.00  0.00  0.00  0.00
  WS02004411WS02004412    1.00   0.00  0.00  0.00  0.99  0.00  0.00  0.00  0.00  0.00
  WS02004412WS02004413    1.00   0.01  0.00  0.00  0.99  0.00  0.00  0.00  0.00  0.00
  WS02004413WS02003067    1.00   0.01  0.00  0.00  0.00  0.00  0.99  0.00  0.00  0.00
  WS02006109WS02006110    1.00   0.00  0.00  0.00  1.00  0.00  0.00  0.00  0.00  0.00
  WS02006110WS02006113    1.00   0.00  0.00  0.00  1.00  0.00  0.00  0.00  0.00  0.00
  WS02006111WS02006112    1.00   0.00  0.00  0.00  1.00  0.00  0.00  0.00  1.00  0.00
  WS02006112WS02006115    1.00   0.00  0.00  0.00  1.00  0.00  0.00  0.00  0.00  0.00
  WS02006113WS02006111    1.00   0.00  0.00  0.00  0.00  1.00  0.00  0.00  0.11  0.00
  WS02006115WS02006116    1.00   0.00  0.00  0.00  1.00  0.00  0.00  0.00  0.00  0.00
  WS02006116WS02004401    1.00   0.00  0.00  0.00  1.00  0.00  0.00  0.00  0.00  0.00
  WS02006228WS02006109    1.00   0.00  0.00  0.00  1.00  0.00  0.00  0.00  0.00  0.00
  WS02006229WS02006228    1.00   0.00  0.00  0.00  1.00  0.00  0.00  0.00  0.00  0.00
  WS02006230WS02006229    1.00   0.00  0.00  0.00  1.00  0.00  0.00  0.00  0.01  0.00
  WS02006231WS02006230    1.00   0.00  0.00  0.00  0.32  0.00  0.68  0.00  0.00  0.00
  WS02006232WS02006231    1.00   0.00  0.00  0.00  0.99  0.00  0.00  0.00  0.00  0.00
  WS02006234WS02006232    1.00   0.00  0.00  0.00  1.00  0.00  0.00  0.00  0.16  0.00
  WS02006235WS02006234    1.00   0.00  0.00  0.00  0.79  0.00  0.21  0.00  0.00  0.00
  WS02006238WS02006235    1.00   0.00  0.00  0.00  1.00  0.00  0.00  0.00  0.00  0.00
  WS02006239WS02006238    1.00   0.00  0.00  0.00  0.99  0.00  0.00  0.00  0.34  0.00
  WS02006240WS02006239    1.00   0.01  0.00  0.00  0.67  0.00  0.00  0.31  0.03  0.00
  WS02006242WS02006240    1.00   0.01  0.00  0.00  0.98  0.00  0.01  0.00  0.00  0.00
  WS02006243WS02006242    1.00   0.01  0.00  0.00  0.99  0.00  0.00  0.01  0.67  0.00
  WS02006245WS02006243    1.00   0.01  0.00  0.00  0.84  0.00  0.00  0.16  0.00  0.00
  WS02006247WS02006245    1.00   0.01  0.00  0.00  0.95  0.00  0.00  0.04  0.00  0.00
  WS02006248WS02006247    1.00   0.01  0.00  0.00  0.96  0.00  0.00  0.03  0.54  0.00
  WS02006249WS02006248    1.00   0.01  0.00  0.00  0.57  0.00  0.42  0.00  0.00  0.00
  WS02006251WS02006249    1.00   0.01  0.00  0.00  0.98  0.01  0.00  0.00  0.67  0.00
  WS02006252WS02006251    1.00   0.01  0.46  0.00  0.11  0.00  0.42  0.00  0.00  0.00
  WS02006256WS02006235    1.00   0.00  0.00  0.00  0.99  0.01  0.00  0.00  0.01  0.00
  WSF200WS02003060        1.00   0.00  0.02  0.00  0.38  0.60  0.00  0.00  0.74  0.00
  YS02001580YS02001583    1.00   0.23  0.50  0.00  0.28  0.00  0.00  0.00  0.69  0.00
  YS02001583YS02001586    1.00   0.31  0.24  0.00  0.45  0.00  0.00  0.00  0.69  0.00
  YS02001586YS02001590    1.00   0.12  0.00  0.00  0.61  0.03  0.00  0.24  0.34  0.00
  YS02001590YS02001593    1.00   0.12  0.00  0.00  0.18  0.00  0.70  0.00  0.00  0.00
  YS02001593YS02001596    1.00   0.13  0.00  0.00  0.20  0.01  0.00  0.67  0.02  0.00
  YS02001596YS02001600    1.00   0.13  0.00  0.00  0.31  0.01  0.00  0.55  0.06  0.00
  YS02001600YS02001601    1.00   0.12  0.00  0.00  0.87  0.00  0.00  0.00  0.63  0.00
  YS02001601YS02001602    1.00   0.12  0.01  0.00  0.87  0.00  0.00  0.00  0.00  0.00
  YS02001602YS02001605    1.00   0.13  0.00  0.00  0.87  0.00  0.00  0.00  0.00  0.00
  YS02001605YS02001607    1.00   0.13  0.00  0.00  0.87  0.00  0.00  0.00  0.00  0.00
  YS02001607YS02001610    1.00   0.12  0.00  0.00  0.87  0.00  0.00  0.00  0.02  0.00
  YS02001610YS02001613    1.00   0.12  0.00  0.00  0.88  0.00  0.00  0.00  0.01  0.00
  YS02001613YS02001616    1.00   0.12  0.00  0.00  0.88  0.00  0.00  0.00  0.01  0.00
  YS02001616YS02001619    1.00   0.12  0.00  0.00  0.88  0.00  0.00  0.00  0.00  0.00
  YS02001619YS02001622    1.00   0.12  0.00  0.00  0.88  0.00  0.00  0.00  0.35  0.00
  YS02001622YS02001625    1.00   0.12  0.00  0.00  0.88  0.00  0.00  0.00  0.05  0.00
  YS02001625YS02001629    1.00   0.12  0.03  0.00  0.23  0.00  0.62  0.00  0.00  0.00
  YS02001629YS02163301    1.00   0.14  0.01  0.00  0.86  0.00  0.00  0.00  0.00  0.00
  YS02001633YS02163601    1.00   0.12  0.00  0.00  0.88  0.00  0.00  0.00  0.02  0.00
  YS02001641YS02001644    1.00   0.12  0.00  0.00  0.88  0.00  0.00  0.00  0.00  0.00
  YS02001644YS02001647    1.00   0.12  0.03  0.00  0.85  0.00  0.00  0.00  0.00  0.00
  YS02001647YS02001649    1.00   0.13  0.02  0.00  0.45  0.41  0.00  0.00  0.59  0.00
  YS02001649YS02001757    1.00   0.00  0.13  0.00  0.44  0.43  0.00  0.00  0.21  0.00
  YS02001652YS02001649    1.00   0.13  0.00  0.00  0.85  0.02  0.00  0.00  0.65  0.00
  YS02001655YS02001652    1.00   0.13  0.00  0.00  0.26  0.02  0.00  0.59  0.06  0.00
  YS02001658YS02001655    1.00   0.13  0.00  0.00  0.49  0.38  0.00  0.00  0.73  0.00
  YS02001661YS02001658    1.00   0.13  0.00  0.00  0.35  0.52  0.00  0.00  0.75  0.00
  YS02001664YS02001661    1.00   0.12  0.00  0.00  0.68  0.20  0.00  0.00  0.86  0.00
  YS02001745YS02001748    1.00   0.12  0.00  0.00  0.10  0.02  0.00  0.76  0.04  0.00
  YS02001748YS02001751    1.00   0.12  0.00  0.00  0.61  0.27  0.00  0.00  0.68  0.00
  YS02001751YS02001754    1.00   0.12  0.00  0.00  0.20  0.01  0.00  0.67  0.02  0.00
  YS02001754YS02001757    1.00   0.00  0.12  0.00  0.87  0.01  0.00  0.00  0.74  0.00
  YS02001757CaochengTiaoxuchi    1.00   0.00  0.00  0.00  0.95  0.05  0.00  0.00  0.84  0.00
  YS02001759YS02001757    1.00   0.00  0.12  0.00  0.87  0.01  0.00  0.00  0.57  0.00
  YS02001762YS02001759    1.00   0.12  0.00  0.00  0.88  0.00  0.00  0.00  0.04  0.00
  YS02001765YS02001762    1.00   0.12  0.00  0.00  0.88  0.00  0.00  0.00  0.62  0.00
  YS02001767YS02001765    1.00   0.12  0.00  0.00  0.88  0.00  0.00  0.00  0.00  0.00
  YS02001770YS02001767    1.00   0.12  0.00  0.00  0.88  0.00  0.00  0.00  0.00  0.00
  YS02001774YS02001770    1.00   0.13  0.00  0.00  0.70  0.00  0.18  0.00  0.02  0.00
  YS02001779YS02001774    1.00   0.13  0.36  0.00  0.52  0.00  0.00  0.00  0.63  0.00
  YS02001783YS02001784    1.00   0.16  0.00  0.00  0.84  0.00  0.00  0.00  0.58  0.00
  YS02001784YS02001785    1.00   0.16  0.00  0.00  0.84  0.00  0.00  0.00  0.43  0.00
  YS02001786YS02001788    1.00   0.16  0.00  0.00  0.48  0.36  0.00  0.00  0.00  0.00
  YS02001788YS02001790    1.00   0.16  0.00  0.00  0.21  0.63  0.00  0.00  0.65  0.00
  YS02001790YS02001791    1.00   0.16  0.00  0.00  0.01  0.82  0.00  0.00  0.15  0.00
  YS02001791YS02001793    1.00   0.16  0.00  0.00  0.00  0.84  0.00  0.00  0.01  0.00
  YS02001793JiankangQianchi    1.00   0.00  0.16  0.00  0.80  0.04  0.00  0.00  0.78  0.00
  YS02001882YS02001884    1.00   0.14  0.00  0.00  0.86  0.00  0.00  0.00  0.00  0.00
  YS02001884YS02001887    1.00   0.13  0.01  0.00  0.87  0.00  0.00  0.00  0.00  0.00
  YS02001887YS02001890    1.00   0.12  0.00  0.00  0.87  0.00  0.01  0.00  0.00  0.00
  YS02001890YS02001895    1.00   0.12  0.02  0.00  0.85  0.00  0.00  0.00  0.00  0.00
  YS02001895YS02001898    1.00   0.15  0.00  0.00  0.84  0.00  0.01  0.00  0.00  0.00
  YS02001898YS02001901    1.00   0.15  0.00  0.00  0.85  0.00  0.00  0.00  0.01  0.00
  YS02001901YS02001904    1.00   0.15  0.00  0.00  0.85  0.00  0.00  0.00  0.00  0.00
  YS02001904YS02001907    1.00   0.12  0.03  0.00  0.85  0.00  0.00  0.00  0.00  0.00
  YS02001907YS02006553    1.00   0.12  0.01  0.00  0.87  0.00  0.00  0.00  0.01  0.00
  YS02001910YS02001907    1.00   0.12  0.00  0.00  0.87  0.00  0.00  0.01  0.03  0.00
  YS02001915YS02001910    1.00   0.12  0.00  0.00  0.86  0.02  0.00  0.00  0.02  0.00
  YS02001918YS02001915    1.00   0.12  0.02  0.00  0.86  0.00  0.00  0.00  0.75  0.00
  YS02001920YS02001918    1.00   0.13  0.01  0.00  0.86  0.00  0.00  0.00  0.00  0.00
  YS02001923YS02001920    1.00   0.13  0.00  0.00  0.87  0.00  0.00  0.00  0.80  0.00
  YS02001926YS02001923    1.00   0.12  0.01  0.00  0.08  0.00  0.79  0.00  0.00  0.00
  YS02001929YS02001926    1.00   0.12  0.00  0.00  0.88  0.00  0.00  0.00  0.84  0.00
  YS02006553YS02006556    1.00   0.13  0.00  0.00  0.87  0.00  0.00  0.00  0.02  0.00
  YS02006556YS02006558    1.00   0.12  0.00  0.00  0.88  0.00  0.00  0.00  0.00  0.00
  YS02006558YS02006561    1.00   0.16  0.00  0.00  0.07  0.77  0.00  0.00  0.17  0.00
  YS02006561YS02001783    1.00   0.16  0.00  0.00  0.25  0.59  0.00  0.00  0.71  0.00
  YS02163301YS02001633    1.00   0.12  0.02  0.00  0.86  0.00  0.00  0.00  0.00  0.00
  YS02163601YS02164001    1.00   0.12  0.01  0.00  0.87  0.00  0.00  0.00  0.01  0.00
  YS02164001YS02001641    1.00   0.12  0.01  0.00  0.87  0.00  0.00  0.00  0.00  0.00
  
  
  *************************
  Conduit Surcharge Summary
  *************************
  
  ----------------------------------------------------------------------------
                                                           Hours        Hours 
                         --------- Hours Full --------   Above Full   Capacity
  Conduit                Both Ends  Upstream  Dnstream   Normal Flow   Limited
  ----------------------------------------------------------------------------
  WS02003072WS02003073        0.01      0.01      0.01      0.76         0.01
  WS02004401WS02004402        0.01      0.01      0.01      0.01         0.01
  WS02004402WS02004403        0.01      0.01      0.01      0.02         0.01
  WS02004403WS02004404        0.01      0.01      0.01      0.01         0.01
  WS02004404WS02004405        0.01      0.01      0.01      2.35         0.01
  WS02004405WS02004406        0.01      0.01      0.01      0.33         0.01
  WS02006109WS02006110        0.43      0.43      1.21      0.51         0.01
  WS02006110WS02006113        0.01      0.01      1.18      0.01         0.01
  WS02006111WS02006112        0.01      0.01      1.45      0.01         0.01
  WS02006112WS02006115        0.01      0.01      0.52      0.01         0.01
  WS02006113WS02006111        0.01      0.01      0.01      0.01         0.01
  WS02006115WS02006116        0.01      0.01      0.01      0.01         0.01
  WS02006116WS02004401        0.01      0.01      0.01      0.02         0.01
  WS02006228WS02006109        1.16      1.21      1.17      1.76         1.16
  WS02006229WS02006228        1.16      1.17      1.16      1.51         1.15
  WS02006230WS02006229        1.30      1.43      1.32      2.54         1.30
  WS02006231WS02006230        0.43      0.43      0.55      2.26         0.01
  WS02006232WS02006231        0.52      0.52      1.24      0.58         0.01
  WS02006234WS02006232        1.15      1.15      1.24      0.55         0.55
  WS02006235WS02006234        0.71      0.72      1.16      2.12         0.01
  WS02006238WS02006235        1.16      1.16      1.25      0.01         0.01
  WS02006239WS02006238        1.18      1.23      1.18      1.33         1.05
  WS02006240WS02006239        1.15      1.17      1.16      1.30         1.00
  WS02006242WS02006240        1.17      1.17      1.32      1.52         0.01
  WS02006243WS02006242        1.18      1.18      1.26      0.01         0.02
  WS02006245WS02006243        1.16      1.17      1.17      0.92         0.70
  WS02006247WS02006245        1.17      1.19      1.17      1.83         1.16
  WS02006248WS02006247        1.15      1.15      1.17      0.01         0.03
  WS02006249WS02006248        1.14      1.14      1.16      1.81         0.01
  WS02006251WS02006249        1.15      1.16      1.16      1.48         1.10
  WS02006252WS02006251        1.55      1.55      1.57      1.55         0.01
  WS02006256WS02006235        2.14      2.18      5.07      0.84         0.01
  YS02001580YS02001583        0.37      0.37      0.41      0.01         0.01
  YS02001583YS02001586        0.37      0.37      0.48      0.01         0.01
  YS02001586YS02001590        0.49      0.49      0.55      0.01         0.01
  YS02001590YS02001593        0.55      0.55      0.56      0.58         0.01
  YS02001593YS02001596        0.56      0.56      0.64      0.01         0.01
  YS02001596YS02001600        0.68      0.68      0.76      0.01         0.01
  YS02001600YS02001601        0.82      0.82      1.14      0.01         0.01
  YS02001601YS02001602        1.00      1.00      1.19      0.78         0.01
  YS02001602YS02001605        0.94      0.94      1.00      1.97         0.01
  YS02001605YS02001607        0.90      0.94      0.90      1.08         0.90
  YS02001607YS02001610        0.50      0.50      0.52      0.01         0.01
  YS02001610YS02001613        0.50      0.50      0.52      0.01         0.01
  YS02001613YS02001616        0.46      0.46      0.50      0.01         0.01
  YS02001616YS02001619        0.45      0.45      0.46      0.01         0.01
  YS02001619YS02001622        0.44      0.45      0.44      0.58         0.42
  YS02001622YS02001625        0.44      0.44      0.60      0.01         0.01
  YS02001625YS02001629        0.40      0.40      0.60      0.01         0.01
  YS02001629YS02163301        0.59      0.59      0.60      0.21         0.21
  YS02001633YS02163601        0.61      0.61      0.64      0.37         0.36
  YS02001641YS02001644        0.50      0.55      0.50      1.26         0.50
  YS02001644YS02001647        0.33      0.33      0.50      0.04         0.01
  YS02001647YS02001649        0.33      0.33      0.41      0.01         0.01
  YS02001649YS02001757        0.41      0.41      0.45      0.28         0.22
  YS02001652YS02001649        0.28      0.28      0.41      0.01         0.01
  YS02001655YS02001652        0.14      0.14      0.25      0.01         0.01
  YS02001658YS02001655        0.03      0.03      0.14      0.01         0.01
  YS02001661YS02001658        0.01      0.01      0.03      0.01         0.01
  YS02001745YS02001748        0.01      0.01      0.01      0.01         0.01
  YS02001748YS02001751        0.01      0.01      0.06      0.01         0.01
  YS02001751YS02001754        0.06      0.06      0.16      0.01         0.01
  YS02001754YS02001757        0.19      0.19      0.45      0.01         0.01
  YS02001757CaochengTiaoxuchi        0.39      0.45      1.08      0.26         0.18
  YS02001759YS02001757        0.37      0.37      0.45      0.01         0.01
  YS02001762YS02001759        0.34      0.34      0.37      0.01         0.01
  YS02001765YS02001762        0.30      0.30      0.34      0.01         0.01
  YS02001767YS02001765        0.27      0.27      0.30      0.01         0.01
  YS02001770YS02001767        0.27      0.27      0.27      0.35         0.21
  YS02001774YS02001770        0.26      0.26      0.32      0.01         0.01
  YS02001779YS02001774        0.17      0.17      0.32      0.01         0.01
  YS02001783YS02001784        0.31      0.33      0.31      0.45         0.31
  YS02001784YS02001785        0.23      0.31      0.23      0.63         0.23
  YS02001786YS02001788        0.01      0.23      0.01      0.53         0.01
  YS02001790YS02001791        0.01      0.01      0.01      0.30         0.01
  YS02001793JiankangQianchi        0.01      0.01      4.07      0.01         0.01
  YS02001882YS02001884        0.29      0.29      0.30      0.01         0.01
  YS02001884YS02001887        0.32      0.32      0.32      0.01         0.01
  YS02001887YS02001890        0.33      0.33      0.35      0.01         0.01
  YS02001890YS02001895        0.28      0.28      0.36      0.01         0.01
  YS02001895YS02001898        0.27      0.27      0.28      0.01         0.01
  YS02001898YS02001901        0.28      0.28      0.31      0.01         0.01
  YS02001901YS02001904        0.31      0.31      0.31      0.01         0.01
  YS02001904YS02001907        0.31      0.31      0.52      0.01         0.01
  YS02001907YS02006553        0.63      0.63      0.69      0.01         0.01
  YS02001910YS02001907        0.35      0.35      0.50      0.01         0.01
  YS02001915YS02001910        0.28      0.28      0.36      0.01         0.01
  YS02001918YS02001915        0.21      0.21      0.29      0.01         0.01
  YS02001920YS02001918        0.21      0.21      0.22      0.01         0.01
  YS02001923YS02001920        0.17      0.17      0.22      0.01         0.01
  YS02001926YS02001923        0.01      0.01      0.01      0.01         0.01
  YS02001929YS02001926        0.01      0.01      0.01      0.01         0.01
  YS02006553YS02006556        0.43      0.43      0.52      0.01         0.01
  YS02006556YS02006558        0.47      0.47      0.53      0.01         0.01
  YS02006558YS02006561        0.25      0.42      0.25      0.59         0.25
  YS02006561YS02001783        0.18      0.18      0.33      0.01         0.01
  YS02163301YS02001633        0.60      0.60      0.63      0.01         0.01
  YS02163601YS02164001        0.56      0.56      0.64      0.11         0.01
  YS02164001YS02001641        0.55      0.56      0.55      0.63         0.50
  
  
  ***************
  Pumping Summary
  ***************
  
  ---------------------------------------------------------------------------------------------------------
                                                  Min       Avg       Max     Total     Power    % Time Off
                        Percent   Number of      Flow      Flow      Flow    Volume     Usage    Pump Curve
  Pump                 Utilized   Start-Ups       LPS       LPS       LPS  10^6 ltr     Kw-hr    Low   High
  ---------------------------------------------------------------------------------------------------------
  CC-R1                   14.94          20      0.00    683.00    683.00     2.938     52.84    0.0   31.4
  CC-R2                   17.72          21      0.00    683.00    683.00     3.485     61.69    0.0   45.3
  CC-S1                   24.09          19      0.00    200.00    200.00     1.388      8.64    0.0    0.0
  CC-S2                   19.53          17      0.00    200.00    200.00     1.125      6.97    0.0    0.0
  JK-R1                    5.44          13      0.00   1000.00   1000.00     1.568     14.82    0.0    0.0
  JK-R2                    1.83          11      0.00   1000.00   1000.00     0.527      4.15    0.0    0.0
  JK-S                    10.18          25      0.00    300.00    300.00     0.879     15.10    0.0    0.0
  

  Analysis begun on:  Wed Sep  6 15:57:21 2023
  Analysis ended on:  Wed Sep  6 15:57:30 2023
  Total elapsed time: 00:00:09