
  OWA STORM WATER MANAGEMENT MODEL - VERSION v5.2.3 (OWA 2023-06-06)
  ------------------------------------------------------------

  WARNING 04: minimum elevation drop used for Conduit WS02004404WS02004405
  WARNING 03: negative offset ignored for Link YS02001904YS02001907
  
  ****************
  Analysis Options
  ****************
  Flow Units ............... LPS
  Process Models:
    Rainfall/Runoff ........ YES
    RDII ................... NO
    Snowmelt ............... NO
    Groundwater ............ NO
    Flow Routing ........... YES
    Ponding Allowed ........ NO
    Water Quality .......... NO
  Infiltration Method ...... HORTON
  Flow Routing Method ...... DYNWAVE
  Surcharge Method ......... EXTRAN
  Starting Date ............ 08/28/2015 08:00:00
  Ending Date .............. 08/28/2015 16:00:00
  Antecedent Dry Days ...... 8.0
  Report Time Step ......... 00:01:00
  Wet Time Step ............ 00:01:00
  Dry Time Step ............ 00:01:00
  Routing Time Step ........ 30.00 sec
  Variable Time Step ....... YES
  Maximum Trials ........... 8
  Number of Threads ........ 2
  Head Tolerance ........... 0.001500 m
  
  
  **************************        Volume         Depth
  Runoff Quantity Continuity     hectare-m            mm
  **************************     ---------       -------
  Initial LID Storage ......         0.049         1.488
  Total Precipitation ......         1.724        51.961
  Evaporation Loss .........         0.000         0.000
  Infiltration Loss ........         0.075         2.250
  Surface Runoff ...........         1.260        37.993
  Final Storage ............         0.439        13.220
  Continuity Error (%) .....        -0.027
  
  
  **************************        Volume        Volume
  Flow Routing Continuity        hectare-m      10^6 ltr
  **************************     ---------     ---------
  Dry Weather Inflow .......         0.025         0.251
  Wet Weather Inflow .......         1.260        12.603
  Groundwater Inflow .......         0.000         0.000
  RDII Inflow ..............         0.000         0.000
  External Inflow ..........         0.083         0.834
  External Outflow .........         1.256        12.565
  Flooding Loss ............         0.206         2.057
  Evaporation Loss .........         0.000         0.000
  Exfiltration Loss ........         0.000         0.000
  Initial Stored Volume ....         0.243         2.431
  Final Stored Volume ......         0.181         1.814
  Continuity Error (%) .....        -1.972
  
  
  *************************
  Highest Continuity Errors
  *************************
  Node YS02001583 (-7.91%)
  Node YS02001884 (5.09%)
  Node WS02006256 (-3.47%)
  Node YS02001774 (1.68%)
  Node WS02006111 (-1.00%)
  
  
  ***************************
  Time-Step Critical Elements
  ***************************
  Link WS02006252WS02006251 (43.05%)
  Link WS02006238WS02006235 (19.11%)
  Link WS02004404WS02004405 (15.82%)
  Link WS02006235WS02006234 (5.30%)
  Link WS02003066WSF200 (5.23%)
  
  
  ********************************
  Highest Flow Instability Indexes
  ********************************
  Link WS02006113WS02006111 (37)
  Link WS02004404WS02004405 (17)
  Link WS02006256WS02006235 (17)
  Link WS02004403WS02004404 (15)
  Link WS02006238WS02006235 (14)
  
  
  *********************************
  Most Frequent Nonconverging Nodes
  *********************************
  Node CC-1 (12.57%)
  Node CC-2 (12.57%)
  Node JK-1 (12.57%)
  Node JK-2 (12.57%)
  Node WSC (12.57%)
  
  
  *************************
  Routing Time Step Summary
  *************************
  Minimum Time Step           :     0.01 sec
  Average Time Step           :     2.29 sec
  Maximum Time Step           :    30.00 sec
  % of Time in Steady State   :     0.00
  Average Iterations per Step :     3.20
  % of Steps Not Converging   :    12.57
  Time Step Frequencies       :
     30.000 - 13.228 sec      :     0.01 %
     13.228 -  5.833 sec      :    11.51 %
      5.833 -  2.572 sec      :    22.53 %
      2.572 -  1.134 sec      :    18.63 %
      1.134 -  0.500 sec      :    47.33 %
  
  
  ***************************
  Subcatchment Runoff Summary
  ***************************
  
  ------------------------------------------------------------------------------------------------------------------------------
                            Total      Total      Total      Total     Imperv       Perv      Total       Total     Peak  Runoff
                           Precip      Runon       Evap      Infil     Runoff     Runoff     Runoff      Runoff   Runoff   Coeff
  Subcatchment                 mm         mm         mm         mm         mm         mm         mm    10^6 ltr      LPS
  ------------------------------------------------------------------------------------------------------------------------------
  sub60                     51.96       0.00       0.00       1.35      34.36       3.46      37.83        0.50   345.30   0.728
  sub61                     51.96       0.00       0.00       2.07      34.33       5.15      39.49        0.72   502.41   0.760
  sub62                     51.96       0.00       0.00       0.92      36.60       2.35      38.95        1.07   688.98   0.750
  sub63                     51.96       0.00       0.00       3.78      29.41       8.56      37.97        0.86   562.26   0.731
  sub64                     51.96       0.00       0.00       1.81      33.48       4.26      37.74        0.91   554.80   0.726
  sub65                     51.96       0.00       0.00       1.66      36.13       3.89      40.02        1.10   645.94   0.770
  sub66                     51.96       0.00       0.00       4.39      28.42       7.56      35.98        1.68   818.25   0.693
  sub67                     51.96       0.00       0.00       0.91      37.53       2.44      39.96        0.74   540.30   0.769
  sub68                     51.96       0.00       0.00       1.59      33.14       3.96      37.09        1.02   686.45   0.714
  sub69                     51.96       0.00       0.00       1.44      34.92       4.74      39.66        1.47   837.90   0.763
  sub70                     51.96       0.00       0.00       4.80      27.97       9.66      37.63        1.09   473.76   0.724
  sub71                     51.96       0.00       0.00       0.85      33.24       2.13      35.37        0.92   563.66   0.681
  sub72                     51.96       0.00       0.00       0.80      35.90       1.98      37.88        0.52   288.54   0.729
  

  ***********************
  LID Performance Summary
  ***********************

  --------------------------------------------------------------------------------------------------------------------
                                         Total      Evap     Infil   Surface    Drain    Initial     Final  Continuity
                                        Inflow      Loss      Loss   Outflow   Outflow   Storage   Storage       Error
  Subcatchment      LID Control             mm        mm        mm        mm        mm        mm        mm           %
  --------------------------------------------------------------------------------------------------------------------
  sub60             GreenRoof            51.96      0.00      0.00      0.00      0.00      7.05     59.04       -0.04
  sub61             GreenRoof            51.96      0.00      0.00      0.00      0.00      7.05     59.04       -0.04
  sub62             GreenRoof            51.96      0.00      0.00      0.00      0.00      7.05     59.04       -0.04
  sub63             GreenRoof            51.96      0.00      0.00      0.00      0.00      7.05     59.04       -0.04
  sub64             GreenRoof            51.96      0.00      0.00      0.00      0.00      7.05     59.04       -0.04
  sub65             GreenRoof            51.96      0.00      0.00      0.00      0.00      7.05     59.04       -0.04
  sub66             GreenRoof            51.96      0.00      0.00      0.00      0.00      7.05     59.04       -0.04
  sub67             GreenRoof            51.96      0.00      0.00      0.00      0.00      7.05     59.04       -0.04
  sub68             GreenRoof            51.96      0.00      0.00      0.00      0.00      7.05     59.04       -0.04
  sub69             GreenRoof            51.96      0.00      0.00      0.00      0.00      7.05     59.04       -0.04
  sub70             GreenRoof            51.96      0.00      0.00      0.00      0.00      7.05     59.04       -0.04
  sub71             GreenRoof            51.96      0.00      0.00      0.00      0.00      7.05     59.04       -0.04
  sub72             GreenRoof            51.96      0.00      0.00      0.00      0.00      7.05     59.04       -0.04
  
  ******************
  Node Depth Summary
  ******************
  
  ---------------------------------------------------------------------------------
                                 Average  Maximum  Maximum  Time of Max    Reported
                                   Depth    Depth      HGL   Occurrence   Max Depth
  Node                 Type       Meters   Meters   Meters  days hr:min      Meters
  ---------------------------------------------------------------------------------
  WS02003060           JUNCTION     0.21     0.38     5.32     0  02:38        0.38
  WS02003066           JUNCTION     0.17     0.30     5.85     0  02:38        0.30
  WS02003067           JUNCTION     0.47     0.70     6.02     0  02:37        0.70
  WS02003069           JUNCTION     0.23     0.43     5.01     0  02:37        0.43
  WS02003072           JUNCTION     0.29     0.50     4.87     0  02:37        0.50
  WS02003073           JUNCTION     0.16     0.30     4.36     0  02:38        0.30
  WS02004401           JUNCTION     0.57     0.88     6.88     0  02:34        0.88
  WS02004402           JUNCTION     0.60     0.90     6.86     0  02:32        0.90
  WS02004403           JUNCTION     0.63     0.92     6.85     0  02:34        0.92
  WS02004404           JUNCTION     0.70     1.04     6.89     0  02:32        1.00
  WS02004405           JUNCTION     0.69     0.97     6.82     0  02:31        0.97
  WS02004406           JUNCTION     0.71     0.96     6.79     0  02:33        0.96
  WS02004407           JUNCTION     0.16     0.30     6.61     0  02:33        0.30
  WS02004409           JUNCTION     0.35     0.67     6.44     0  02:36        0.67
  WS02004410           JUNCTION     0.38     0.68     6.40     0  02:36        0.68
  WS02004411           JUNCTION     0.40     0.69     6.37     0  02:37        0.69
  WS02004412           JUNCTION     0.42     0.70     6.34     0  02:35        0.70
  WS02004413           JUNCTION     0.59     0.86     6.33     0  02:37        0.86
  WS02006109           JUNCTION     0.61     1.16     7.78     0  02:22        0.98
  WS02006110           JUNCTION     0.62     1.19     7.77     0  02:22        0.93
  WS02006111           JUNCTION     0.16     0.90     7.60     0  00:00        0.40
  WS02006112           JUNCTION     0.72     2.68     8.56     0  00:00        1.14
  WS02006113           JUNCTION     0.24     1.40     8.29     0  00:00        0.46
  WS02006115           JUNCTION     0.44     1.65     7.79     0  00:00        0.86
  WS02006116           JUNCTION     0.53     1.06     7.10     0  00:00        0.85
  WS02006228           JUNCTION     0.59     1.24     7.89     0  02:22        1.01
  WS02006229           JUNCTION     0.56     1.30     8.00     0  02:22        1.02
  WS02006230           JUNCTION     0.55     1.49     8.23     0  02:22        1.15
  WS02006231           JUNCTION     0.37     1.20     8.33     0  02:22        0.90
  WS02006232           JUNCTION     0.50     1.76     8.80     0  03:40        1.12
  WS02006234           JUNCTION     0.41     1.55     8.71     0  03:40        1.23
  WS02006235           JUNCTION     0.45     1.41     8.57     0  03:06        1.41
  WS02006238           JUNCTION     0.47     1.47     8.61     0  03:06        1.47
  WS02006239           JUNCTION     0.43     1.66     8.87     0  03:40        1.54
  WS02006240           JUNCTION     0.40     1.84     9.13     0  03:40        1.54
  WS02006242           JUNCTION     0.46     1.55     8.82     0  03:06        1.55
  WS02006243           JUNCTION     0.37     1.45     8.87     0  03:06        1.45
  WS02006245           JUNCTION     0.37     1.36     8.84     0  03:06        1.36
  WS02006247           JUNCTION     0.40     1.29     8.79     0  03:06        1.29
  WS02006248           JUNCTION     0.36     1.10     8.69     0  02:22        1.10
  WS02006249           JUNCTION     0.39     1.09     8.69     0  02:10        1.09
  WS02006251           JUNCTION     0.39     1.35     9.02     0  02:10        1.26
  WS02006252           JUNCTION     0.30     1.50     9.74     0  02:04        0.82
  WS02006256           JUNCTION     0.95     2.35     9.28     0  00:05        2.35
  WSF200               JUNCTION     0.14     0.29     5.52     0  02:38        0.29
  YS02001580           JUNCTION     0.08     1.05     9.59     0  01:58        0.77
  YS02001583           JUNCTION     0.11     1.14     9.64     0  01:58        0.82
  YS02001586           JUNCTION     0.18     1.13     9.30     0  01:57        1.13
  YS02001590           JUNCTION     0.27     1.40     9.26     0  01:56        1.37
  YS02001593           JUNCTION     0.21     1.36     9.22     0  01:56        1.28
  YS02001596           JUNCTION     0.28     1.68     9.10     0  01:58        1.65
  YS02001600           JUNCTION     0.35     1.87     9.00     0  01:57        1.86
  YS02001601           JUNCTION     0.52     2.06     8.90     0  01:56        2.06
  YS02001602           JUNCTION     0.44     1.87     8.77     0  01:57        1.87
  YS02001605           JUNCTION     0.41     1.78     8.68     0  01:57        1.78
  YS02001607           JUNCTION     0.40     1.66     8.51     0  01:57        1.64
  YS02001610           JUNCTION     0.43     1.68     8.48     0  01:57        1.68
  YS02001613           JUNCTION     0.40     1.70     8.54     0  01:57        1.65
  YS02001616           JUNCTION     0.34     1.61     8.52     0  01:57        1.60
  YS02001619           JUNCTION     0.32     1.61     8.54     0  01:57        1.59
  YS02001622           JUNCTION     0.30     1.62     8.52     0  01:57        1.57
  YS02001625           JUNCTION     0.54     1.78     8.38     0  01:57        1.78
  YS02001629           JUNCTION     0.42     1.85     8.40     0  01:57        1.85
  YS02001633           JUNCTION     0.49     2.05     8.50     0  01:59        2.03
  YS02001641           JUNCTION     0.46     1.96     8.40     0  02:01        1.93
  YS02001644           JUNCTION     0.46     1.92     8.35     0  02:01        1.92
  YS02001647           JUNCTION     0.26     1.81     8.42     0  02:02        1.65
  YS02001649           JUNCTION     0.29     2.05     8.44     0  02:02        1.78
  YS02001652           JUNCTION     0.19     2.16     8.76     0  02:02        1.61
  YS02001655           JUNCTION     0.14     2.20     9.05     0  02:02        1.39
  YS02001658           JUNCTION     0.10     2.30     9.44     0  02:02        1.14
  YS02001661           JUNCTION     0.13     0.90     8.30     0  02:02        0.90
  YS02001664           JUNCTION     0.05     0.29     8.21     0  02:01        0.28
  YS02001745           JUNCTION     0.05     0.65     8.17     0  02:02        0.63
  YS02001748           JUNCTION     0.09     1.74     8.82     0  02:02        1.01
  YS02001751           JUNCTION     0.11     2.20     9.08     0  02:01        1.18
  YS02001754           JUNCTION     0.16     2.20     8.81     0  02:01        2.20
  YS02001757           JUNCTION     0.29     1.99     8.25     0  02:01        1.86
  YS02001759           JUNCTION     0.24     1.93     8.29     0  02:01        1.69
  YS02001762           JUNCTION     0.24     1.96     8.36     0  02:01        1.68
  YS02001765           JUNCTION     0.22     1.93     8.38     0  02:01        1.68
  YS02001767           JUNCTION     0.22     1.94     8.43     0  02:01        1.72
  YS02001770           JUNCTION     0.23     1.95     8.45     0  02:01        1.82
  YS02001774           JUNCTION     0.29     2.02     8.44     0  02:01        1.90
  YS02001779           JUNCTION     0.14     1.68     8.37     0  02:00        1.68
  YS02001783           JUNCTION     0.22     1.39     7.53     0  02:00        1.24
  YS02001784           JUNCTION     0.24     1.23     7.30     0  02:00        1.13
  YS02001786           JUNCTION     0.20     0.97     7.00     0  02:00        0.88
  YS02001788           JUNCTION     0.14     0.62     6.60     0  02:00        0.62
  YS02001790           JUNCTION     0.17     0.72     6.36     0  02:01        0.70
  YS02001791           JUNCTION     0.11     0.44     5.91     0  02:02        0.43
  YS02001793           JUNCTION     0.06     0.21     5.04     0  02:02        0.21
  YS02001882           JUNCTION     0.28     1.83     8.55     0  01:59        1.62
  YS02001884           JUNCTION     0.36     1.93     8.55     0  01:59        1.72
  YS02001887           JUNCTION     0.43     1.92     8.46     0  01:59        1.81
  YS02001890           JUNCTION     0.46     1.81     8.32     0  01:59        1.81
  YS02001895           JUNCTION     0.25     1.68     8.43     0  01:59        1.56
  YS02001898           JUNCTION     0.26     1.75     8.49     0  01:59        1.56
  YS02001901           JUNCTION     0.36     1.87     8.48     0  01:59        1.66
  YS02001904           JUNCTION     0.34     1.79     8.42     0  01:59        1.64
  YS02001907           JUNCTION     0.63     1.96     8.25     0  01:59        1.96
  YS02001910           JUNCTION     0.45     2.10     8.61     0  01:59        1.83
  YS02001915           JUNCTION     0.28     2.00     8.72     0  01:59        1.68
  YS02001918           JUNCTION     0.15     1.81     8.88     0  02:01        1.36
  YS02001920           JUNCTION     0.23     2.09     9.10     0  02:01        1.42
  YS02001923           JUNCTION     0.11     2.03     9.29     0  02:01        1.16
  YS02001926           JUNCTION     0.14     1.90     9.35     0  02:01        0.98
  YS02001929           JUNCTION     0.08     1.78     9.47     0  02:01        0.99
  YS02006553           JUNCTION     0.63     2.01     8.29     0  02:00        1.97
  YS02006556           JUNCTION     0.61     2.02     8.33     0  02:00        1.96
  YS02006558           JUNCTION     0.65     2.09     8.35     0  02:00        2.00
  YS02006561           JUNCTION     0.14     1.10     7.76     0  02:00        0.90
  YS02163301           JUNCTION     0.44     1.94     8.46     0  01:59        1.93
  YS02163601           JUNCTION     0.52     2.05     8.44     0  02:01        2.02
  YS02164001           JUNCTION     0.45     1.96     8.42     0  02:01        1.93
  CC-1                 OUTFALL      0.00     0.00     0.00     0  00:00        0.00
  CC-2                 OUTFALL      0.00     0.00     0.00     0  00:00        0.00
  JK-1                 OUTFALL      0.00     0.00     0.00     0  00:00        0.00
  JK-2                 OUTFALL      0.00     0.00     0.00     0  00:00        0.00
  WSC                  OUTFALL      0.16     0.30     0.97     0  02:39        0.30
  CC-storage           STORAGE      0.71     1.42     6.92     0  02:23        1.42
  JK-storage           STORAGE      1.40     4.21     5.01     0  02:22        4.14
  
  
  *******************
  Node Inflow Summary
  *******************
  
  -------------------------------------------------------------------------------------------------
                                  Maximum  Maximum                  Lateral       Total        Flow
                                  Lateral    Total  Time of Max      Inflow      Inflow     Balance
                                   Inflow   Inflow   Occurrence      Volume      Volume       Error
  Node                 Type           LPS      LPS  days hr:min    10^6 ltr    10^6 ltr     Percent
  -------------------------------------------------------------------------------------------------
  WS02003060           JUNCTION     16.53   554.97     0  02:38       0.476        4.29       0.057
  WS02003066           JUNCTION      0.00   537.90     0  02:38           0        3.82       0.036
  WS02003067           JUNCTION      0.00   537.85     0  02:37           0        3.82       0.110
  WS02003069           JUNCTION      0.32   554.55     0  02:38     0.00922         4.3       0.091
  WS02003072           JUNCTION      0.00   554.27     0  02:37           0         4.3       0.160
  WS02003073           JUNCTION      1.82   556.08     0  02:38      0.0524        4.34       0.130
  WS02004401           JUNCTION      0.00  1677.78     0  00:00           0        3.93       0.295
  WS02004402           JUNCTION      0.00  1171.33     0  00:01           0        3.92       0.289
  WS02004403           JUNCTION      0.00   884.75     0  00:01           0        3.91       0.280
  WS02004404           JUNCTION      0.16   832.59     0  00:01     0.00467         3.9       0.225
  WS02004405           JUNCTION      0.04   776.49     0  00:01      0.0011        3.89       0.287
  WS02004406           JUNCTION      0.00   711.76     0  00:02           0        3.88       0.565
  WS02004407           JUNCTION      0.00   539.99     0  02:33           0        3.86       0.031
  WS02004409           JUNCTION      0.00   539.26     0  02:33           0        3.86       0.072
  WS02004410           JUNCTION      0.00   538.68     0  02:36           0        3.85       0.118
  WS02004411           JUNCTION      0.00   538.50     0  02:37           0        3.85       0.152
  WS02004412           JUNCTION      0.00   538.19     0  02:37           0        3.84       0.195
  WS02004413           JUNCTION      0.00   538.26     0  02:37           0        3.84       0.354
  WS02006109           JUNCTION      1.23  1308.01     0  00:00      0.0354        3.86       0.202
  WS02006110           JUNCTION      0.00   563.76     0  03:06           0        3.83      -0.932
  WS02006111           JUNCTION      0.00  1176.04     0  00:00           0        3.86      -0.994
  WS02006112           JUNCTION      0.00  2307.30     0  00:00           0         3.9      -0.014
  WS02006113           JUNCTION      0.00   568.63     0  03:06           0        3.82      -1.279
  WS02006115           JUNCTION      0.00   899.27     0  00:00           0        3.88      -0.824
  WS02006116           JUNCTION      0.00  1098.16     0  00:01           0        3.91      -0.588
  WS02006228           JUNCTION      0.00   559.73     0  02:22           0        3.81       0.095
  WS02006229           JUNCTION      0.00   559.67     0  02:22           0        3.79       0.232
  WS02006230           JUNCTION     10.28   585.69     0  02:40       0.296        3.78       0.021
  WS02006231           JUNCTION      0.00   572.38     0  03:00           0        3.47       0.016
  WS02006232           JUNCTION      0.00   571.69     0  03:00           0        3.48       0.229
  WS02006234           JUNCTION      0.00   567.00     0  03:00           0        3.46      -0.400
  WS02006235           JUNCTION      0.00   559.18     0  03:00           0        3.57       0.464
  WS02006238           JUNCTION      0.00   423.70     0  02:20           0         2.8      -0.217
  WS02006239           JUNCTION      0.00   422.68     0  02:20           0        2.73      -0.245
  WS02006240           JUNCTION      0.00   421.12     0  02:20           0        2.69      -0.026
  WS02006242           JUNCTION      0.00   421.57     0  03:01           0        2.69      -0.023
  WS02006243           JUNCTION      0.00   422.90     0  03:01           0        2.68      -0.308
  WS02006245           JUNCTION      0.00   423.98     0  03:01           0        2.69       0.486
  WS02006247           JUNCTION      0.00   425.50     0  03:01           0        2.69       0.009
  WS02006248           JUNCTION      0.00   424.84     0  03:01           0        2.68      -0.066
  WS02006249           JUNCTION      0.00   472.52     0  00:25           0        2.82       0.668
  WS02006251           JUNCTION      0.08   405.55     0  02:11     0.00222        2.82       0.011
  WS02006252           JUNCTION      0.00   400.00     0  00:25           0        2.81      -0.472
  WS02006256           JUNCTION      0.00   300.00     0  00:05           0        1.07      -3.356
  WSF200               JUNCTION      0.00   537.98     0  02:38           0        3.82       0.013
  YS02001580           JUNCTION      0.00   131.02     0  01:57           0     0.00441       1.738
  YS02001583           JUNCTION      0.00   220.28     0  01:58           0      0.0152      -7.331
  YS02001586           JUNCTION    473.76   473.76     0  02:04        1.09         1.1       0.130
  YS02001590           JUNCTION      0.00   323.43     0  02:15           0       0.996      -0.044
  YS02001593           JUNCTION      0.00   319.32     0  02:15           0       0.996       0.009
  YS02001596           JUNCTION      0.00   317.85     0  02:07           0       0.996      -0.001
  YS02001600           JUNCTION      0.00   317.95     0  02:06           0       0.996       0.013
  YS02001601           JUNCTION    837.90  1155.34     0  02:02        1.47        2.46       0.019
  YS02001602           JUNCTION      0.00   534.67     0  01:57           0        1.83       0.023
  YS02001605           JUNCTION      0.00   534.50     0  01:57           0        1.76       0.032
  YS02001607           JUNCTION      0.00   534.33     0  01:57           0        1.76       0.109
  YS02001610           JUNCTION      0.00   545.31     0  01:57           0        1.76       0.119
  YS02001613           JUNCTION      0.00   550.47     0  01:57           0        1.57       0.105
  YS02001616           JUNCTION      0.00   539.06     0  01:57           0        1.57       0.023
  YS02001619           JUNCTION    818.25   960.66     0  01:57        1.68        3.25      -0.003
  YS02001622           JUNCTION      0.00   963.25     0  01:57           0        3.24      -0.001
  YS02001625           JUNCTION      0.00   950.69     0  01:57           0        3.24       0.257
  YS02001629           JUNCTION      0.00   950.74     0  01:57           0        2.93       0.013
  YS02001633           JUNCTION    646.14  1443.85     0  01:59        1.11        4.04       0.082
  YS02001641           JUNCTION      0.00  1442.38     0  01:59           0        4.04       0.065
  YS02001644           JUNCTION    554.84  1886.55     0  01:59       0.908        4.94       0.064
  YS02001647           JUNCTION      0.00  1886.98     0  01:59           0        4.93       0.006
  YS02001649           JUNCTION      0.00  2205.54     0  01:59           0         5.8       0.005
  YS02001652           JUNCTION      0.00   643.76     0  02:03           0       0.866      -0.126
  YS02001655           JUNCTION      0.15   643.73     0  02:03     0.00443       0.866       0.041
  YS02001658           JUNCTION      0.00   803.31     0  02:02           0       0.862      -0.062
  YS02001661           JUNCTION      0.00   572.79     0  02:01           0       0.862       0.040
  YS02001664           JUNCTION    562.26   562.26     0  02:02       0.862       0.862      -0.011
  YS02001745           JUNCTION    345.30   345.30     0  02:02       0.497       0.497       0.311
  YS02001748           JUNCTION      0.04   623.62     0  02:03      0.0013       0.499      -0.424
  YS02001751           JUNCTION      0.01   520.05     0  02:04    0.000317       0.506       0.007
  YS02001754           JUNCTION      0.26   446.85     0  02:04     0.00749       0.518      -0.333
  YS02001757           JUNCTION      0.00  3345.93     0  02:03           0        8.12       0.070
  YS02001759           JUNCTION    502.45  1213.74     0  02:01       0.726        1.81      -0.010
  YS02001762           JUNCTION      0.00   710.74     0  02:01           0        1.08      -0.001
  YS02001765           JUNCTION      0.00   706.56     0  02:01           0        1.08       0.004
  YS02001767           JUNCTION      0.54   702.80     0  02:01      0.0154        1.08      -0.001
  YS02001770           JUNCTION    689.14   696.65     0  02:01        1.07        1.11       0.006
  YS02001774           JUNCTION      0.00   428.11     0  02:00           0      0.0617       1.708
  YS02001779           JUNCTION      0.01   435.41     0  02:00    0.000144      0.0201      -2.014
  YS02001783           JUNCTION      0.00  1151.44     0  02:02           0        2.96       0.006
  YS02001784           JUNCTION      1.06  1152.49     0  02:01      0.0305        2.99       0.017
  YS02001786           JUNCTION      0.06  1152.99     0  02:01     0.00162        2.99       0.023
  YS02001788           JUNCTION      0.07  1156.24     0  02:01     0.00204        2.99       0.010
  YS02001790           JUNCTION      0.15  1162.97     0  02:01     0.00446           3       0.018
  YS02001791           JUNCTION      0.00  1280.48     0  02:01           0        2.99      -0.010
  YS02001793           JUNCTION      0.00  1228.04     0  02:02           0           3       0.006
  YS02001882           JUNCTION      0.00    66.97     0  01:59           0      0.0125       4.166
  YS02001884           JUNCTION      0.00   107.07     0  01:58           0       0.048       5.360
  YS02001887           JUNCTION    540.75   541.42     0  02:01       0.756       0.789       0.552
  YS02001890           JUNCTION      0.00   541.91     0  02:01           0       0.749       0.664
  YS02001895           JUNCTION      0.00   516.49     0  02:00           0       0.741       0.193
  YS02001898           JUNCTION      0.00   517.60     0  02:00           0       0.739       0.044
  YS02001901           JUNCTION      0.00   516.76     0  02:00           0       0.742       0.426
  YS02001904           JUNCTION      0.00   517.29     0  02:00           0       0.746       0.371
  YS02001907           JUNCTION      0.00  1528.39     0  02:02           0        2.26       0.781
  YS02001910           JUNCTION      0.00  1017.33     0  02:02           0        1.52       0.457
  YS02001915           JUNCTION    563.68  1017.25     0  02:02       0.926        1.57       0.090
  YS02001918           JUNCTION      0.00   490.23     0  02:00           0        0.68       0.028
  YS02001920           JUNCTION      2.87   471.85     0  02:00      0.0827        0.66       0.130
  YS02001923           JUNCTION      0.04   562.51     0  02:00     0.00109       0.561      -0.094
  YS02001926           JUNCTION      0.05   827.47     0  02:01      0.0015       0.541      -0.206
  YS02001929           JUNCTION    288.54   709.73     0  02:00       0.521       0.526      -0.069
  YS02006553           JUNCTION      0.00   790.37     0  02:12           0        1.96       0.596
  YS02006556           JUNCTION      0.00   790.98     0  02:12           0        1.97       0.404
  YS02006558           JUNCTION    687.33  1171.08     0  02:00        1.05        2.99       0.119
  YS02006561           JUNCTION      0.00  1168.16     0  02:00           0        2.96      -0.005
  YS02163301           JUNCTION      0.00   939.35     0  01:59           0        2.93       0.047
  YS02163601           JUNCTION      0.11  1443.64     0  01:59     0.00317        4.04       0.119
  YS02164001           JUNCTION      0.00  1443.23     0  01:59           0        4.03       0.051
  CC-1                 OUTFALL       0.00   683.00     0  00:05           0        3.54       0.000
  CC-2                 OUTFALL       0.00   683.00     0  00:05           0        2.63       0.000
  JK-1                 OUTFALL       0.00  1000.00     0  00:05           0        1.01       0.000
  JK-2                 OUTFALL       0.00  1000.00     0  00:05           0        1.05       0.000
  WSC                  OUTFALL       0.00   556.05     0  02:39           0        4.34       0.000
  CC-storage           STORAGE       0.00  3346.65     0  02:03           0        10.3      -0.298
  JK-storage           STORAGE       0.00  1226.18     0  02:02           0        3.15      -0.547
  
  
  **********************
  Node Surcharge Summary
  **********************
  
  Surcharging occurs when water rises above the top of the highest conduit.
  ---------------------------------------------------------------------
                                               Max. Height   Min. Depth
                                   Hours       Above Crown    Below Rim
  Node                 Type      Surcharged         Meters       Meters
  ---------------------------------------------------------------------
  WS02004404           JUNCTION        0.02          0.035        2.745
  WS02006109           JUNCTION        1.19          0.339        1.481
  WS02006110           JUNCTION        0.42          0.280        1.570
  WS02006111           JUNCTION        0.01          0.087        1.783
  WS02006112           JUNCTION        0.50          1.680        0.000
  WS02006113           JUNCTION        0.01          0.600        1.330
  WS02006115           JUNCTION        0.01          0.642        1.608
  WS02006116           JUNCTION        0.01          0.000        2.290
  WS02006228           JUNCTION        1.18          0.414        1.786
  WS02006229           JUNCTION        1.19          0.503        1.947
  WS02006230           JUNCTION        0.42          0.409        1.161
  WS02006231           JUNCTION        0.48          0.493        1.037
  WS02006232           JUNCTION        1.25          1.063        0.417
  WS02006234           JUNCTION        0.71          0.831        0.409
  WS02006235           JUNCTION        1.16          0.699        0.591
  WS02006238           JUNCTION        1.19          0.750        0.680
  WS02006239           JUNCTION        1.17          0.921        0.369
  WS02006240           JUNCTION        1.18          1.132        0.258
  WS02006242           JUNCTION        1.23          0.820        0.000
  WS02006243           JUNCTION        1.17          0.745        0.025
  WS02006245           JUNCTION        1.17          0.650        0.200
  WS02006247           JUNCTION        1.17          0.580        0.180
  WS02006248           JUNCTION        1.16          0.380        0.000
  WS02006249           JUNCTION        1.17          0.390        0.000
  WS02006251           JUNCTION        0.51          0.324        0.856
  WS02006252           JUNCTION        1.48          1.100        0.000
  WS02006256           JUNCTION        6.58          2.050        0.000
  YS02001580           JUNCTION        0.37          0.450        0.000
  YS02001583           JUNCTION        0.38          0.500        0.000
  YS02001586           JUNCTION        0.48          0.510        0.000
  YS02001590           JUNCTION        0.54          0.750        0.000
  YS02001593           JUNCTION        0.55          0.736        0.104
  YS02001596           JUNCTION        0.64          0.954        0.116
  YS02001600           JUNCTION        0.76          1.190        0.000
  YS02001601           JUNCTION        1.14          1.440        0.000
  YS02001602           JUNCTION        1.00          1.270        0.000
  YS02001605           JUNCTION        0.95          1.180        0.000
  YS02001607           JUNCTION        0.50          0.659        0.021
  YS02001610           JUNCTION        0.53          0.680        0.000
  YS02001613           JUNCTION        0.50          0.700        0.000
  YS02001616           JUNCTION        0.47          0.610        0.000
  YS02001619           JUNCTION        0.45          0.610        0.000
  YS02001622           JUNCTION        0.44          0.620        0.000
  YS02001625           JUNCTION        0.60          0.780        0.000
  YS02001629           JUNCTION        0.40          0.470        0.000
  YS02001633           JUNCTION        0.62          1.029        0.031
  YS02001641           JUNCTION        0.55          0.958        0.142
  YS02001644           JUNCTION        0.51          0.920        0.000
  YS02001647           JUNCTION        0.34          0.806        0.094
  YS02001649           JUNCTION        0.42          1.050        0.000
  YS02001652           JUNCTION        0.26          1.130        0.000
  YS02001655           JUNCTION        0.13          1.200        0.000
  YS02001658           JUNCTION        0.03          1.300        0.000
  YS02001748           JUNCTION        0.01          0.662        0.528
  YS02001751           JUNCTION        0.05          1.200        0.000
  YS02001754           JUNCTION        0.15          1.150        0.000
  YS02001757           JUNCTION        0.45          0.991        0.219
  YS02001759           JUNCTION        0.37          0.931        0.279
  YS02001762           JUNCTION        0.35          0.961        0.189
  YS02001765           JUNCTION        0.31          0.932        0.168
  YS02001767           JUNCTION        0.28          0.939        0.091
  YS02001770           JUNCTION        0.26          0.920        0.000
  YS02001774           JUNCTION        0.33          1.017        0.033
  YS02001779           JUNCTION        0.16          0.680        0.000
  YS02001783           JUNCTION        0.34          0.591        1.009
  YS02001784           JUNCTION        0.31          0.432        1.058
  YS02001786           JUNCTION        0.23          0.167        1.263
  YS02001882           JUNCTION        0.29          0.830        0.000
  YS02001884           JUNCTION        0.30          0.870        0.000
  YS02001887           JUNCTION        0.33          0.875        0.075
  YS02001890           JUNCTION        0.34          0.760        0.000
  YS02001895           JUNCTION        0.28          0.682        0.068
  YS02001898           JUNCTION        0.27          0.724        0.016
  YS02001901           JUNCTION        0.32          0.870        0.000
  YS02001904           JUNCTION        0.31          0.791        0.059
  YS02001907           JUNCTION        0.51          0.950        0.000
  YS02001910           JUNCTION        0.36          1.100        0.000
  YS02001915           JUNCTION        0.29          1.000        0.000
  YS02001918           JUNCTION        0.22          0.810        0.000
  YS02001920           JUNCTION        0.23          1.095        0.045
  YS02001923           JUNCTION        0.01          0.820        0.000
  YS02001926           JUNCTION        0.01          0.900        0.000
  YS02001929           JUNCTION        0.01          0.780        0.000
  YS02006553           JUNCTION        0.52          1.006        0.184
  YS02006556           JUNCTION        0.43          0.982        0.368
  YS02006558           JUNCTION        0.42          0.987        0.413
  YS02006561           JUNCTION        0.19          0.301        0.849
  YS02163301           JUNCTION        0.60          0.944        0.086
  YS02163601           JUNCTION        0.64          1.046        0.034
  YS02164001           JUNCTION        0.56          0.964        0.136
  
  
  *********************
  Node Flooding Summary
  *********************
  
  Flooding refers to all water that overflows a node, whether it ponds or not.
  --------------------------------------------------------------------------
                                                             Total   Maximum
                                 Maximum   Time of Max       Flood    Ponded
                        Hours       Rate    Occurrence      Volume     Depth
  Node                 Flooded       LPS   days hr:min    10^6 ltr    Meters
  --------------------------------------------------------------------------
  WS02006112              0.01   1547.89      0  00:00       0.047     0.000
  WS02006242              0.01     36.26      0  03:40       0.000     0.000
  WS02006248              0.01     14.70      0  03:06       0.000     0.000
  WS02006249              0.49     95.34      0  03:06       0.120     0.000
  WS02006252              0.01      0.91      0  02:04       0.000     0.000
  WS02006256              0.99    288.19      0  03:35       0.309     0.000
  YS02001580              0.01     96.05      0  01:58       0.000     0.000
  YS02001583              0.01    191.20      0  01:58       0.000     0.000
  YS02001586              0.28    156.23      0  02:04       0.090     0.000
  YS02001590              0.01     55.59      0  01:56       0.000     0.000
  YS02001600              0.01      2.18      0  01:57       0.000     0.000
  YS02001601              0.42    757.53      0  02:03       0.638     0.000
  YS02001602              0.32     61.98      0  02:12       0.062     0.000
  YS02001605              0.01      2.58      0  01:57       0.000     0.000
  YS02001610              0.27    315.44      0  02:04       0.191     0.000
  YS02001613              0.01     10.57      0  01:57       0.000     0.000
  YS02001616              0.01     21.54      0  01:57       0.000     0.000
  YS02001619              0.01     78.06      0  01:57       0.000     0.000
  YS02001622              0.01    191.54      0  01:57       0.000     0.000
  YS02001625              0.23    815.42      0  02:03       0.302     0.000
  YS02001629              0.04    254.95      0  01:57       0.004     0.000
  YS02001644              0.02     63.33      0  02:02       0.001     0.000
  YS02001649              0.01      9.19      0  02:02       0.000     0.000
  YS02001652              0.01     57.50      0  02:02       0.000     0.000
  YS02001655              0.01     57.28      0  02:02       0.000     0.000
  YS02001658              0.01    425.47      0  02:02       0.000     0.000
  YS02001751              0.01    358.45      0  02:01       0.000     0.000
  YS02001754              0.01    112.37      0  02:01       0.000     0.000
  YS02001770              0.01     12.61      0  02:01       0.000     0.000
  YS02001779              0.01    377.69      0  02:00       0.003     0.000
  YS02001882              0.01     43.91      0  01:59       0.000     0.000
  YS02001884              0.01     47.67      0  01:59       0.000     0.000
  YS02001890              0.04     57.21      0  01:59       0.003     0.000
  YS02001901              0.01     18.89      0  01:59       0.000     0.000
  YS02001907              0.17   1064.23      0  02:02       0.297     0.000
  YS02001910              0.01     21.05      0  01:59       0.000     0.000
  YS02001915              0.01    192.49      0  01:59       0.000     0.000
  YS02001918              0.01    197.10      0  02:01       0.002     0.000
  YS02001923              0.01    269.25      0  02:01       0.001     0.000
  YS02001926              0.01    642.03      0  02:01       0.003     0.000
  YS02001929              0.01    328.96      0  02:01       0.001     0.000
  
  
  **********************
  Storage Volume Summary
  **********************
  
  ------------------------------------------------------------------------------------------------
                         Average    Avg   Evap  Exfil     Maximum    Max    Time of Max    Maximum
                          Volume   Pcnt   Pcnt   Pcnt      Volume   Pcnt     Occurrence    Outflow
  Storage Unit           1000 m³   Full   Loss   Loss     1000 m³   Full    days hr:min        LPS
  ------------------------------------------------------------------------------------------------
  CC-storage               1.981   30.9    0.0    0.0       3.958   61.7       0  02:23    1766.00
  JK-storage               0.070   24.1    0.0    0.0       0.212   72.7       0  02:22    2300.00
  
  
  ***********************
  Outfall Loading Summary
  ***********************
  
  -----------------------------------------------------------
                         Flow       Avg       Max       Total
                         Freq      Flow      Flow      Volume
  Outfall Node           Pcnt       LPS       LPS    10^6 ltr
  -----------------------------------------------------------
  CC-1                  29.06    683.00    683.00       3.537
  CC-2                  24.31    683.00    683.00       2.631
  JK-1                   5.08   1000.00   1000.00       1.012
  JK-2                   6.68   1000.00   1000.00       1.048
  WSC                   99.99    203.82    556.05       4.336
  -----------------------------------------------------------
  System                33.03   3569.82   3909.31      12.565
  
  
  ********************
  Link Flow Summary
  ********************
  
  -----------------------------------------------------------------------------
                                 Maximum  Time of Max   Maximum    Max/    Max/
                                  |Flow|   Occurrence   |Veloc|    Full    Full
  Link                 Type          LPS  days hr:min     m/sec    Flow   Depth
  -----------------------------------------------------------------------------
  1                    CONDUIT    556.05     0  02:39      2.83    0.19    0.30
  WS02003060WS02003069 CONDUIT    554.23     0  02:38      1.64    0.22    0.34
  WS02003066WSF200     CONDUIT    537.98     0  02:38      2.85    0.09    0.22
  WS02003067WS02003066 CONDUIT    537.90     0  02:38      1.21    0.17    0.42
  WS02003069WS02003072 CONDUIT    554.27     0  02:37      1.37    0.27    0.39
  WS02003072WS02003073 CONDUIT    554.26     0  02:38      1.44    1.20    0.37
  WS02004401WS02004402 CONDUIT   1171.33     0  00:01      2.51    1.41    0.89
  WS02004402WS02004403 CONDUIT    884.75     0  00:01      2.16    1.27    0.91
  WS02004403WS02004404 CONDUIT    832.43     0  00:01      1.96    0.60    0.96
  WS02004404WS02004405 CONDUIT    776.45     0  00:01      2.26    7.61    0.98
  WS02004405WS02004406 CONDUIT    711.76     0  00:02      2.15    1.40    0.96
  WS02004406WS02004407 CONDUIT    539.99     0  02:33      1.04    0.24    0.63
  WS02004407WS02004409 CONDUIT    539.26     0  02:33      1.95    0.19    0.48
  WS02004409WS02004410 CONDUIT    538.68     0  02:36      1.31    0.70    0.68
  WS02004410WS02004411 CONDUIT    538.50     0  02:37      1.19    0.74    0.69
  WS02004411WS02004412 CONDUIT    538.19     0  02:37      1.09    0.76    0.69
  WS02004412WS02004413 CONDUIT    538.26     0  02:37      1.11    0.36    0.78
  WS02004413WS02003067 CONDUIT    537.85     0  02:37      1.11    0.23    0.59
  WS02006109WS02006110 CONDUIT   1306.78     0  00:00      3.14    2.51    1.00
  WS02006110WS02006113 CONDUIT    568.63     0  03:06      1.38    0.52    1.00
  WS02006111WS02006112 CONDUIT   2307.30     0  00:00      9.18    1.10    0.91
  WS02006112WS02006115 CONDUIT    899.27     0  00:00      1.16    0.53    1.00
  WS02006113WS02006111 CONDUIT   1176.04     0  00:00      2.47    1.41    1.00
  WS02006115WS02006116 CONDUIT   1098.16     0  00:01      1.72    1.41    1.00
  WS02006116WS02004401 CONDUIT   1677.78     0  00:00      2.92    2.31    0.87
  WS02006228WS02006109 CONDUIT    560.68     0  02:22      1.40    2.45    1.00
  WS02006229WS02006228 CONDUIT    559.73     0  02:22      1.24    1.85    1.00
  WS02006230WS02006229 CONDUIT    559.67     0  02:22      1.45   12.46    1.00
  WS02006231WS02006230 CONDUIT    575.42     0  02:40      1.56    8.73    1.00
  WS02006232WS02006231 CONDUIT    572.38     0  03:00      1.49    1.20    1.00
  WS02006234WS02006232 CONDUIT    571.69     0  03:00      1.49    1.16    1.00
  WS02006235WS02006234 CONDUIT    567.00     0  03:00      1.47    5.98    1.00
  WS02006238WS02006235 CONDUIT    423.60     0  02:20      1.52    0.95    1.00
  WS02006239WS02006238 CONDUIT    423.70     0  02:20      1.10    1.36    1.00
  WS02006240WS02006239 CONDUIT    422.68     0  02:20      1.17    1.33    1.00
  WS02006242WS02006240 CONDUIT    421.12     0  02:20      1.09    1.67    1.00
  WS02006243WS02006242 CONDUIT    421.57     0  03:01      1.24    0.90    1.00
  WS02006245WS02006243 CONDUIT    422.90     0  03:01      1.37    1.25    1.00
  WS02006247WS02006245 CONDUIT    423.98     0  03:01      1.38    3.36    1.00
  WS02006248WS02006247 CONDUIT    425.50     0  03:01      1.42    0.93    1.00
  WS02006249WS02006248 CONDUIT    424.84     0  03:01      1.40    2.33    1.00
  WS02006251WS02006249 CONDUIT    472.52     0  00:25      1.91    1.36    1.00
  WS02006252WS02006251 CONDUIT    405.48     0  02:11     21.97    1.49    1.00
  WS02006256WS02006235 CONDUIT    289.26     0  00:05      4.25    3.06    1.00
  WSF200WS02003060     CONDUIT    538.44     0  02:38      2.06    0.12    0.28
  YS02001580YS02001583 CONDUIT    131.02     0  01:57      0.78    0.51    1.00
  YS02001583YS02001586 CONDUIT    184.08     0  01:57      0.79    0.28    1.00
  YS02001586YS02001590 CONDUIT    323.43     0  02:15      1.27    0.57    1.00
  YS02001590YS02001593 CONDUIT    319.32     0  02:15      1.13    2.00    1.00
  YS02001593YS02001596 CONDUIT    317.85     0  02:07      1.74    0.50    1.00
  YS02001596YS02001600 CONDUIT    317.95     0  02:06      1.21    0.62    1.00
  YS02001600YS02001601 CONDUIT    317.82     0  02:05      1.12    0.55    1.00
  YS02001601YS02001602 CONDUIT    534.67     0  01:57      1.89    1.93    1.00
  YS02001602YS02001605 CONDUIT    534.50     0  01:57      1.89   11.31    1.00
  YS02001605YS02001607 CONDUIT    534.33     0  01:57      1.89    2.93    1.00
  YS02001607YS02001610 CONDUIT    545.31     0  01:57      0.69    0.52    1.00
  YS02001610YS02001613 CONDUIT    550.47     0  01:57      0.70    0.63    1.00
  YS02001613YS02001616 CONDUIT    539.06     0  01:57      0.69    0.46    1.00
  YS02001616YS02001619 CONDUIT    532.45     0  01:57      0.68    0.92    1.00
  YS02001619YS02001622 CONDUIT    963.25     0  01:57      1.23    1.42    1.00
  YS02001622YS02001625 CONDUIT    950.69     0  01:57      1.21    0.51    1.00
  YS02001625YS02001629 CONDUIT    950.74     0  01:57      1.21    0.45    1.00
  YS02001629YS02163301 CONDUIT    939.35     0  01:59      1.20    1.16    1.00
  YS02001633YS02163601 CONDUIT   1443.53     0  01:59      1.84    1.52    1.00
  YS02001641YS02001644 CONDUIT   1442.67     0  01:59      1.84    4.66    1.00
  YS02001644YS02001647 CONDUIT   1886.98     0  01:59      2.42    1.11    1.00
  YS02001647YS02001649 CONDUIT   1896.41     0  01:59      2.42    1.00    1.00
  YS02001649YS02001757 CONDUIT   2193.93     0  01:59      2.80    1.33    1.00
  YS02001652YS02001649 CONDUIT    643.54     0  02:03      0.82    0.32    1.00
  YS02001655YS02001652 CONDUIT    643.76     0  02:03      1.35    0.31    1.00
  YS02001658YS02001655 CONDUIT    643.58     0  02:03      1.97    0.27    1.00
  YS02001661YS02001658 CONDUIT    803.31     0  02:02      2.41    0.32    0.91
  YS02001664YS02001661 CONDUIT    572.79     0  02:01      2.38    0.18    0.59
  YS02001745YS02001748 CONDUIT    623.58     0  02:03      2.26    0.24    0.72
  YS02001748YS02001751 CONDUIT    520.04     0  02:04      1.76    0.26    1.00
  YS02001751YS02001754 CONDUIT    446.59     0  02:04      1.45    0.22    1.00
  YS02001754YS02001757 CONDUIT    447.39     0  02:04      0.57    0.18    1.00
  YS02001757CaochengTiaoxuchi CONDUIT   3346.65     0  02:03      4.34    1.45    1.00
  YS02001759YS02001757 CONDUIT   1216.60     0  02:01      1.55    0.86    1.00
  YS02001762YS02001759 CONDUIT    715.08     0  02:01      0.91    0.82    1.00
  YS02001765YS02001762 CONDUIT    710.74     0  02:01      0.90    0.67    1.00
  YS02001767YS02001765 CONDUIT    706.56     0  02:01      0.90    0.89    1.00
  YS02001770YS02001767 CONDUIT    702.27     0  02:01      0.89    2.78    1.00
  YS02001774YS02001770 CONDUIT    428.11     0  02:00      0.55    0.27    1.00
  YS02001779YS02001774 CONDUIT    435.41     0  02:00      0.56    0.22    1.00
  YS02001783YS02001784 CONDUIT   1151.43     0  02:01      2.29    1.59    1.00
  YS02001784YS02001785 CONDUIT   1152.93     0  02:01      2.29    2.68    1.00
  YS02001786YS02001788 CONDUIT   1156.17     0  02:01      2.48    2.23    0.89
  YS02001788YS02001790 CONDUIT   1162.82     0  02:01      2.70    0.86    0.83
  YS02001790YS02001791 CONDUIT   1280.48     0  02:01      3.41    1.39    0.70
  YS02001791YS02001793 CONDUIT   1228.04     0  02:02      6.75    0.53    0.40
  YS02001793JiankangQianchi CONDUIT   1226.18     0  02:02      2.47    0.10    0.61
  YS02001882YS02001884 CONDUIT     66.97     0  01:59      0.12    0.08    1.00
  YS02001884YS02001887 CONDUIT    107.07     0  01:58      0.14    0.14    1.00
  YS02001887YS02001890 CONDUIT    541.91     0  02:01      0.69    0.93    1.00
  YS02001890YS02001895 CONDUIT    516.49     0  02:00      0.66    0.24    1.00
  YS02001895YS02001898 CONDUIT    517.60     0  02:00      0.66    0.90    1.00
  YS02001898YS02001901 CONDUIT    516.76     0  02:00      0.66    0.33    1.00
  YS02001901YS02001904 CONDUIT    517.29     0  02:00      0.66    0.80    1.00
  YS02001904YS02001907 CONDUIT    516.40     0  02:00      0.66    0.18    1.00
  YS02001907YS02006553 CONDUIT    790.37     0  02:12      0.88    0.93    1.00
  YS02001910YS02001907 CONDUIT   1017.21     0  02:02      1.30    0.57    1.00
  YS02001915YS02001910 CONDUIT   1017.33     0  02:02      1.30    0.51    1.00
  YS02001918YS02001915 CONDUIT    490.23     0  02:00      0.62    0.27    1.00
  YS02001920YS02001918 CONDUIT    468.98     0  02:00      0.64    0.45    1.00
  YS02001923YS02001920 CONDUIT    470.28     0  02:00      0.72    0.21    1.00
  YS02001926YS02001923 CONDUIT    589.68     0  02:00      0.99    0.84    1.00
  YS02001929YS02001926 CONDUIT    487.35     0  02:01      1.19    0.23    1.00
  YS02006553YS02006556 CONDUIT    790.98     0  02:12      1.01    0.68    1.00
  YS02006556YS02006558 CONDUIT    792.96     0  02:12      1.01    0.63    1.00
  YS02006558YS02006561 CONDUIT   1168.16     0  02:00      4.13    2.58    1.00
  YS02006561YS02001783 CONDUIT   1151.44     0  02:02      2.29    0.60    1.00
  YS02163301YS02001633 CONDUIT    939.43     0  01:59      1.20    0.88    1.00
  YS02163601YS02164001 CONDUIT   1443.23     0  01:59      1.84    1.28    1.00
  YS02164001YS02001641 CONDUIT   1442.38     0  01:59      1.84    1.97    1.00
  CC-R1                PUMP       683.00     0  00:05              1.00
  CC-R2                PUMP       683.00     0  00:05              1.00
  CC-S1                PUMP       200.00     0  00:10              1.00
  CC-S2                PUMP       200.00     0  00:05              1.00
  JK-R1                PUMP      1000.00     0  00:05              1.00
  JK-R2                PUMP      1000.00     0  00:05              1.00
  JK-S                 PUMP       300.00     0  00:05              1.00
  
  
  ***************************
  Flow Classification Summary
  ***************************
  
  -------------------------------------------------------------------------------------
                      Adjusted    ---------- Fraction of Time in Flow Class ---------- 
                       /Actual         Up    Down  Sub   Sup   Up    Down  Norm  Inlet 
  Conduit               Length    Dry  Dry   Dry   Crit  Crit  Crit  Crit  Ltd   Ctrl  
  -------------------------------------------------------------------------------------
  1                       1.00   0.00  0.00  0.00  0.00  1.00  0.00  0.00  0.28  0.00
  WS02003060WS02003069    1.00   0.00  0.00  0.00  0.97  0.03  0.00  0.00  0.74  0.00
  WS02003066WSF200        1.00   0.03  0.00  0.00  0.00  0.97  0.00  0.00  0.90  0.00
  WS02003067WS02003066    1.00   0.02  0.01  0.00  0.97  0.00  0.00  0.00  0.00  0.00
  WS02003069WS02003072    1.00   0.00  0.00  0.00  0.99  0.01  0.00  0.00  0.82  0.00
  WS02003072WS02003073    1.00   0.00  0.00  0.00  0.00  0.00  0.00  1.00  0.00  0.00
  WS02004401WS02004402    1.00   0.00  0.00  0.00  1.00  0.00  0.00  0.00  0.00  0.00
  WS02004402WS02004403    1.00   0.00  0.00  0.00  1.00  0.00  0.00  0.00  0.00  0.00
  WS02004403WS02004404    1.00   0.00  0.00  0.00  1.00  0.00  0.00  0.00  0.00  0.00
  WS02004404WS02004405    1.00   0.00  0.00  0.00  1.00  0.00  0.00  0.00  0.01  0.00
  WS02004405WS02004406    1.00   0.00  0.00  0.00  1.00  0.00  0.00  0.00  0.00  0.00
  WS02004406WS02004407    1.00   0.00  0.00  0.00  1.00  0.00  0.00  0.00  0.00  0.00
  WS02004407WS02004409    1.00   0.00  0.00  0.00  0.99  0.01  0.00  0.00  0.99  0.00
  WS02004409WS02004410    1.00   0.00  0.00  0.00  0.99  0.00  0.00  0.00  0.00  0.00
  WS02004410WS02004411    1.00   0.01  0.00  0.00  0.99  0.00  0.00  0.00  0.00  0.00
  WS02004411WS02004412    1.00   0.01  0.00  0.00  0.99  0.00  0.00  0.00  0.00  0.00
  WS02004412WS02004413    1.00   0.01  0.00  0.00  0.99  0.00  0.00  0.00  0.00  0.00
  WS02004413WS02003067    1.00   0.01  0.01  0.00  0.00  0.00  0.98  0.00  0.00  0.00
  WS02006109WS02006110    1.00   0.00  0.00  0.00  1.00  0.00  0.00  0.00  0.00  0.00
  WS02006110WS02006113    1.00   0.00  0.00  0.00  1.00  0.00  0.00  0.00  0.00  0.00
  WS02006111WS02006112    1.00   0.00  0.00  0.00  1.00  0.00  0.00  0.00  1.00  0.00
  WS02006112WS02006115    1.00   0.00  0.00  0.00  1.00  0.00  0.00  0.00  0.00  0.00
  WS02006113WS02006111    1.00   0.00  0.00  0.00  0.01  0.99  0.00  0.00  0.12  0.00
  WS02006115WS02006116    1.00   0.00  0.00  0.00  1.00  0.00  0.00  0.00  0.00  0.00
  WS02006116WS02004401    1.00   0.00  0.00  0.00  1.00  0.00  0.00  0.00  0.00  0.00
  WS02006228WS02006109    1.00   0.00  0.00  0.00  1.00  0.00  0.00  0.00  0.00  0.00
  WS02006229WS02006228    1.00   0.00  0.00  0.00  1.00  0.00  0.00  0.00  0.00  0.00
  WS02006230WS02006229    1.00   0.00  0.00  0.00  1.00  0.00  0.00  0.00  0.04  0.00
  WS02006231WS02006230    1.00   0.00  0.00  0.00  0.19  0.00  0.81  0.00  0.00  0.00
  WS02006232WS02006231    1.00   0.00  0.00  0.00  0.99  0.00  0.01  0.00  0.00  0.00
  WS02006234WS02006232    1.00   0.00  0.00  0.00  0.99  0.00  0.00  0.00  0.05  0.00
  WS02006235WS02006234    1.00   0.01  0.00  0.00  0.92  0.00  0.07  0.00  0.00  0.00
  WS02006238WS02006235    1.00   0.01  0.00  0.00  0.99  0.00  0.00  0.00  0.00  0.00
  WS02006239WS02006238    1.00   0.01  0.00  0.00  0.99  0.00  0.00  0.00  0.16  0.00
  WS02006240WS02006239    1.00   0.01  0.00  0.00  0.66  0.00  0.00  0.33  0.05  0.00
  WS02006242WS02006240    1.00   0.01  0.00  0.00  0.98  0.00  0.01  0.00  0.00  0.00
  WS02006243WS02006242    1.00   0.01  0.00  0.00  0.98  0.00  0.00  0.01  0.62  0.00
  WS02006245WS02006243    1.00   0.01  0.00  0.00  0.80  0.00  0.00  0.19  0.01  0.00
  WS02006247WS02006245    1.00   0.01  0.00  0.00  0.95  0.00  0.00  0.04  0.00  0.00
  WS02006248WS02006247    1.00   0.01  0.00  0.00  0.97  0.00  0.00  0.02  0.58  0.00
  WS02006249WS02006248    1.00   0.00  0.01  0.00  0.38  0.00  0.61  0.00  0.00  0.00
  WS02006251WS02006249    1.00   0.00  0.00  0.00  0.99  0.01  0.00  0.00  0.60  0.00
  WS02006252WS02006251    1.00   0.01  0.50  0.00  0.06  0.00  0.43  0.00  0.00  0.00
  WS02006256WS02006235    1.00   0.01  0.00  0.00  0.97  0.02  0.00  0.00  0.01  0.00
  WSF200WS02003060        1.00   0.00  0.03  0.00  0.48  0.49  0.00  0.00  0.70  0.00
  YS02001580YS02001583    1.00   0.24  0.60  0.00  0.16  0.00  0.00  0.00  0.69  0.00
  YS02001583YS02001586    1.00   0.49  0.29  0.00  0.21  0.00  0.00  0.00  0.69  0.00
  YS02001586YS02001590    1.00   0.13  0.00  0.00  0.38  0.04  0.00  0.46  0.34  0.00
  YS02001590YS02001593    1.00   0.13  0.01  0.00  0.08  0.00  0.79  0.00  0.00  0.00
  YS02001593YS02001596    1.00   0.14  0.00  0.00  0.10  0.01  0.00  0.76  0.02  0.00
  YS02001596YS02001600    1.00   0.14  0.00  0.00  0.17  0.01  0.00  0.68  0.06  0.00
  YS02001600YS02001601    1.00   0.13  0.01  0.00  0.86  0.00  0.00  0.00  0.63  0.00
  YS02001601YS02001602    1.00   0.13  0.01  0.00  0.86  0.00  0.00  0.00  0.00  0.00
  YS02001602YS02001605    1.00   0.14  0.00  0.00  0.86  0.00  0.00  0.00  0.00  0.00
  YS02001605YS02001607    1.00   0.14  0.00  0.00  0.86  0.00  0.00  0.00  0.00  0.00
  YS02001607YS02001610    1.00   0.13  0.01  0.00  0.86  0.00  0.00  0.00  0.02  0.00
  YS02001610YS02001613    1.00   0.13  0.00  0.00  0.87  0.00  0.00  0.00  0.01  0.00
  YS02001613YS02001616    1.00   0.13  0.00  0.00  0.87  0.00  0.00  0.00  0.01  0.00
  YS02001616YS02001619    1.00   0.13  0.00  0.00  0.87  0.00  0.00  0.00  0.00  0.00
  YS02001619YS02001622    1.00   0.13  0.00  0.00  0.87  0.00  0.00  0.00  0.35  0.00
  YS02001622YS02001625    1.00   0.13  0.00  0.00  0.87  0.00  0.00  0.00  0.05  0.00
  YS02001625YS02001629    1.00   0.13  0.05  0.00  0.12  0.00  0.70  0.00  0.00  0.00
  YS02001629YS02163301    1.00   0.16  0.01  0.00  0.83  0.00  0.00  0.00  0.00  0.00
  YS02001633YS02163601    1.00   0.00  0.01  0.00  0.99  0.00  0.00  0.00  0.15  0.00
  YS02001641YS02001644    1.00   0.00  0.01  0.00  0.99  0.00  0.00  0.00  0.00  0.00
  YS02001644YS02001647    1.00   0.00  0.18  0.00  0.82  0.00  0.00  0.00  0.00  0.00
  YS02001647YS02001649    1.00   0.00  0.18  0.00  0.54  0.28  0.00  0.00  0.60  0.00
  YS02001649YS02001757    1.00   0.00  0.00  0.00  0.70  0.30  0.00  0.00  0.56  0.00
  YS02001652YS02001649    1.00   0.00  0.00  0.00  0.96  0.04  0.00  0.00  0.78  0.00
  YS02001655YS02001652    1.00   0.00  0.00  0.00  0.14  0.02  0.00  0.84  0.06  0.00
  YS02001658YS02001655    1.00   0.00  0.14  0.00  0.63  0.22  0.00  0.00  0.74  0.00
  YS02001661YS02001658    1.00   0.14  0.00  0.00  0.50  0.36  0.00  0.00  0.74  0.00
  YS02001664YS02001661    1.00   0.13  0.00  0.00  0.77  0.11  0.00  0.00  0.86  0.00
  YS02001745YS02001748    1.00   0.00  0.00  0.00  0.05  0.01  0.00  0.94  0.04  0.00
  YS02001748YS02001751    1.00   0.00  0.00  0.00  0.80  0.20  0.00  0.00  0.80  0.00
  YS02001751YS02001754    1.00   0.00  0.00  0.00  0.11  0.00  0.00  0.89  0.03  0.00
  YS02001754YS02001757    1.00   0.00  0.00  0.00  1.00  0.00  0.00  0.00  0.88  0.00
  YS02001757CaochengTiaoxuchi    1.00   0.00  0.00  0.00  0.97  0.03  0.00  0.00  0.85  0.00
  YS02001759YS02001757    1.00   0.00  0.00  0.00  1.00  0.00  0.00  0.00  0.68  0.00
  YS02001762YS02001759    1.00   0.00  0.00  0.00  1.00  0.00  0.00  0.00  0.04  0.00
  YS02001765YS02001762    1.00   0.00  0.00  0.00  1.00  0.00  0.00  0.00  0.77  0.00
  YS02001767YS02001765    1.00   0.00  0.00  0.00  1.00  0.00  0.00  0.00  0.00  0.00
  YS02001770YS02001767    1.00   0.00  0.00  0.00  1.00  0.00  0.00  0.00  0.00  0.00
  YS02001774YS02001770    1.00   0.00  0.13  0.00  0.60  0.00  0.27  0.00  0.03  0.00
  YS02001779YS02001774    1.00   0.00  0.00  0.00  1.00  0.00  0.00  0.00  0.81  0.00
  YS02001783YS02001784    1.00   0.00  0.19  0.00  0.81  0.00  0.00  0.00  0.58  0.00
  YS02001784YS02001785    1.00   0.00  0.00  0.00  1.00  0.00  0.00  0.00  0.17  0.00
  YS02001786YS02001788    1.00   0.00  0.00  0.00  0.80  0.20  0.00  0.00  0.00  0.00
  YS02001788YS02001790    1.00   0.00  0.00  0.00  0.21  0.79  0.00  0.00  0.84  0.00
  YS02001790YS02001791    1.00   0.00  0.00  0.00  0.01  0.99  0.00  0.00  0.16  0.00
  YS02001791YS02001793    1.00   0.00  0.00  0.00  0.00  1.00  0.00  0.00  0.00  0.00
  YS02001793JiankangQianchi    1.00   0.00  0.00  0.00  0.97  0.02  0.00  0.00  1.00  0.00
  YS02001882YS02001884    1.00   0.15  0.01  0.00  0.84  0.00  0.00  0.00  0.00  0.00
  YS02001884YS02001887    1.00   0.06  0.05  0.00  0.89  0.00  0.00  0.00  0.00  0.00
  YS02001887YS02001890    1.00   0.00  0.00  0.00  0.97  0.00  0.03  0.00  0.00  0.00
  YS02001890YS02001895    1.00   0.00  0.17  0.00  0.83  0.00  0.00  0.00  0.00  0.00
  YS02001895YS02001898    1.00   0.17  0.00  0.00  0.81  0.00  0.02  0.00  0.00  0.00
  YS02001898YS02001901    1.00   0.17  0.00  0.00  0.83  0.00  0.00  0.00  0.01  0.00
  YS02001901YS02001904    1.00   0.17  0.00  0.00  0.83  0.00  0.00  0.00  0.00  0.00
  YS02001904YS02001907    1.00   0.00  0.17  0.00  0.83  0.00  0.00  0.00  0.00  0.00
  YS02001907YS02006553    1.00   0.00  0.02  0.00  0.98  0.00  0.00  0.00  0.00  0.00
  YS02001910YS02001907    1.00   0.00  0.00  0.00  0.97  0.00  0.00  0.03  0.12  0.00
  YS02001915YS02001910    1.00   0.00  0.00  0.00  0.96  0.04  0.00  0.00  0.17  0.00
  YS02001918YS02001915    1.00   0.00  0.00  0.00  0.98  0.02  0.00  0.00  0.79  0.00
  YS02001920YS02001918    1.00   0.00  0.00  0.00  1.00  0.00  0.00  0.00  0.01  0.00
  YS02001923YS02001920    1.00   0.00  0.00  0.00  1.00  0.00  0.00  0.00  0.95  0.00
  YS02001926YS02001923    1.00   0.00  0.07  0.00  0.04  0.00  0.89  0.00  0.00  0.00
  YS02001929YS02001926    1.00   0.00  0.13  0.00  0.87  0.00  0.00  0.00  0.84  0.00
  YS02006553YS02006556    1.00   0.01  0.00  0.00  0.99  0.00  0.00  0.00  0.03  0.00
  YS02006556YS02006558    1.00   0.00  0.00  0.00  1.00  0.00  0.00  0.00  0.00  0.00
  YS02006558YS02006561    1.00   0.18  0.00  0.00  0.03  0.78  0.00  0.00  0.19  0.00
  YS02006561YS02001783    1.00   0.19  0.00  0.00  0.06  0.76  0.00  0.00  0.72  0.00
  YS02163301YS02001633    1.00   0.00  0.16  0.00  0.84  0.00  0.00  0.00  0.00  0.00
  YS02163601YS02164001    1.00   0.00  0.08  0.00  0.92  0.00  0.00  0.00  0.00  0.00
  YS02164001YS02001641    1.00   0.01  0.07  0.00  0.92  0.00  0.00  0.00  0.06  0.00
  
  
  *************************
  Conduit Surcharge Summary
  *************************
  
  ----------------------------------------------------------------------------
                                                           Hours        Hours 
                         --------- Hours Full --------   Above Full   Capacity
  Conduit                Both Ends  Upstream  Dnstream   Normal Flow   Limited
  ----------------------------------------------------------------------------
  WS02003072WS02003073        0.01      0.01      0.01      0.65         0.01
  WS02004401WS02004402        0.01      0.01      0.01      0.01         0.01
  WS02004402WS02004403        0.01      0.01      0.01      0.01         0.01
  WS02004403WS02004404        0.01      0.01      0.01      0.01         0.01
  WS02004404WS02004405        0.01      0.01      0.01      2.76         0.01
  WS02004405WS02004406        0.01      0.01      0.01      0.37         0.01
  WS02006109WS02006110        0.41      0.42      1.25      0.47         0.01
  WS02006110WS02006113        0.01      0.01      1.21      0.01         0.01
  WS02006111WS02006112        0.01      0.01      1.76      0.01         0.01
  WS02006112WS02006115        0.01      0.01      0.49      0.01         0.01
  WS02006113WS02006111        0.01      0.01      0.01      0.01         0.01
  WS02006115WS02006116        0.01      0.01      0.01      0.01         0.01
  WS02006116WS02004401        0.01      0.01      0.01      0.01         0.01
  WS02006228WS02006109        1.19      1.25      1.19      2.10         1.18
  WS02006229WS02006228        1.18      1.19      1.18      1.62         1.18
  WS02006230WS02006229        1.39      1.56      1.39      3.17         1.39
  WS02006231WS02006230        0.42      0.42      0.51      2.76         0.01
  WS02006232WS02006231        0.48      0.48      1.25      0.52         0.01
  WS02006234WS02006232        1.15      1.15      1.25      0.51         0.51
  WS02006235WS02006234        0.71      0.71      1.16      2.58         0.01
  WS02006238WS02006235        1.18      1.18      1.25      0.01         0.01
  WS02006239WS02006238        1.19      1.20      1.19      1.36         1.06
  WS02006240WS02006239        1.17      1.18      1.17      1.35         1.03
  WS02006242WS02006240        1.18      1.18      1.28      1.52         0.01
  WS02006243WS02006242        1.17      1.17      1.23      0.01         0.03
  WS02006245WS02006243        1.17      1.17      1.17      0.92         0.77
  WS02006247WS02006245        1.17      1.18      1.17      2.31         1.17
  WS02006248WS02006247        1.16      1.16      1.17      0.01         0.03
  WS02006249WS02006248        1.16      1.16      1.17      2.23         0.01
  WS02006251WS02006249        1.17      1.17      1.17      1.39         1.11
  WS02006252WS02006251        1.45      1.45      1.47      1.45         0.01
  WS02006256WS02006235        2.61      2.66      6.48      1.05         0.01
  YS02001580YS02001583        0.37      0.37      0.41      0.01         0.01
  YS02001583YS02001586        0.38      0.38      0.48      0.01         0.01
  YS02001586YS02001590        0.49      0.49      0.54      0.01         0.01
  YS02001590YS02001593        0.55      0.55      0.56      0.58         0.01
  YS02001593YS02001596        0.56      0.56      0.64      0.01         0.01
  YS02001596YS02001600        0.68      0.68      0.76      0.01         0.01
  YS02001600YS02001601        0.82      0.82      1.14      0.01         0.01
  YS02001601YS02001602        1.00      1.00      1.19      0.78         0.01
  YS02001602YS02001605        0.95      0.95      1.00      1.97         0.01
  YS02001605YS02001607        0.90      0.95      0.90      1.08         0.90
  YS02001607YS02001610        0.50      0.50      0.53      0.01         0.01
  YS02001610YS02001613        0.50      0.50      0.53      0.01         0.01
  YS02001613YS02001616        0.47      0.47      0.50      0.01         0.01
  YS02001616YS02001619        0.45      0.45      0.47      0.01         0.01
  YS02001619YS02001622        0.44      0.45      0.44      0.58         0.42
  YS02001622YS02001625        0.44      0.44      0.60      0.01         0.01
  YS02001625YS02001629        0.40      0.40      0.60      0.01         0.01
  YS02001629YS02163301        0.59      0.59      0.60      0.21         0.20
  YS02001633YS02163601        0.62      0.62      0.64      0.37         0.37
  YS02001641YS02001644        0.51      0.55      0.51      1.26         0.51
  YS02001644YS02001647        0.34      0.34      0.51      0.04         0.01
  YS02001647YS02001649        0.34      0.34      0.42      0.01         0.01
  YS02001649YS02001757        0.41      0.42      0.45      0.28         0.22
  YS02001652YS02001649        0.28      0.28      0.42      0.01         0.01
  YS02001655YS02001652        0.13      0.13      0.26      0.01         0.01
  YS02001658YS02001655        0.03      0.03      0.13      0.01         0.01
  YS02001661YS02001658        0.01      0.01      0.03      0.01         0.01
  YS02001745YS02001748        0.01      0.01      0.01      0.01         0.01
  YS02001748YS02001751        0.01      0.01      0.05      0.01         0.01
  YS02001751YS02001754        0.05      0.05      0.15      0.01         0.01
  YS02001754YS02001757        0.18      0.18      0.45      0.01         0.01
  YS02001757CaochengTiaoxuchi        0.37      0.45      1.05      0.25         0.15
  YS02001759YS02001757        0.37      0.37      0.45      0.01         0.01
  YS02001762YS02001759        0.35      0.35      0.37      0.01         0.01
  YS02001765YS02001762        0.31      0.31      0.35      0.01         0.01
  YS02001767YS02001765        0.28      0.28      0.31      0.01         0.01
  YS02001770YS02001767        0.28      0.29      0.28      0.34         0.22
  YS02001774YS02001770        0.26      0.26      0.33      0.01         0.01
  YS02001779YS02001774        0.16      0.16      0.33      0.01         0.01
  YS02001783YS02001784        0.31      0.34      0.31      0.45         0.31
  YS02001784YS02001785        0.23      0.31      0.23      0.63         0.23
  YS02001786YS02001788        0.01      0.23      0.01      0.53         0.01
  YS02001790YS02001791        0.01      0.01      0.01      0.30         0.01
  YS02001793JiankangQianchi        0.01      0.01      6.75      0.01         0.01
  YS02001882YS02001884        0.29      0.29      0.30      0.01         0.01
  YS02001884YS02001887        0.32      0.32      0.33      0.01         0.01
  YS02001887YS02001890        0.34      0.34      0.35      0.01         0.01
  YS02001890YS02001895        0.28      0.28      0.36      0.01         0.01
  YS02001895YS02001898        0.28      0.28      0.28      0.01         0.01
  YS02001898YS02001901        0.28      0.28      0.32      0.01         0.01
  YS02001901YS02001904        0.31      0.31      0.32      0.01         0.01
  YS02001904YS02001907        0.31      0.31      0.52      0.01         0.01
  YS02001907YS02006553        0.64      0.64      0.70      0.01         0.01
  YS02001910YS02001907        0.36      0.36      0.51      0.01         0.01
  YS02001915YS02001910        0.29      0.29      0.36      0.01         0.01
  YS02001918YS02001915        0.22      0.22      0.29      0.01         0.01
  YS02001920YS02001918        0.22      0.22      0.23      0.01         0.01
  YS02001923YS02001920        0.17      0.17      0.23      0.01         0.01
  YS02001926YS02001923        0.01      0.01      0.01      0.01         0.01
  YS02001929YS02001926        0.01      0.01      0.01      0.01         0.01
  YS02006553YS02006556        0.43      0.43      0.52      0.01         0.01
  YS02006556YS02006558        0.48      0.48      0.53      0.01         0.01
  YS02006558YS02006561        0.25      0.42      0.25      0.59         0.25
  YS02006561YS02001783        0.19      0.19      0.34      0.01         0.01
  YS02163301YS02001633        0.60      0.60      0.63      0.01         0.01
  YS02163601YS02164001        0.56      0.56      0.64      0.11         0.01
  YS02164001YS02001641        0.55      0.56      0.55      0.64         0.50
  
  
  ***************
  Pumping Summary
  ***************
  
  ---------------------------------------------------------------------------------------------------------
                                                  Min       Avg       Max     Total     Power    % Time Off
                        Percent   Number of      Flow      Flow      Flow    Volume     Usage    Pump Curve
  Pump                 Utilized   Start-Ups       LPS       LPS       LPS  10^6 ltr     Kw-hr    Low   High
  ---------------------------------------------------------------------------------------------------------
  CC-R1                   18.08          21      0.00    683.00    683.00     3.557     63.71    0.0   36.9
  CC-R2                   13.47          25      0.00    683.00    683.00     2.650     47.10    0.0   44.7
  CC-S1                   26.13          18      0.00    200.00    200.00     1.505      9.41    0.0    0.0
  CC-S2                   22.78          27      0.00    200.00    200.00     1.312      8.14    0.0    0.0
  JK-R1                    3.53          15      0.00   1000.00   1000.00     1.016      8.76    0.0    0.0
  JK-R2                    3.66          13      0.00   1000.00   1000.00     1.054      8.77    0.0    0.0
  JK-S                    12.31          41      0.00    300.00    300.00     1.064     18.93    0.0    0.0
  

  Analysis begun on:  Fri Aug  4 07:05:16 2023
  Analysis ended on:  Fri Aug  4 07:05:20 2023
  Total elapsed time: 00:00:04