
  OWA STORM WATER MANAGEMENT MODEL - VERSION v5.2.3 (OWA 2023-06-06)
  ------------------------------------------------------------

  WARNING 04: minimum elevation drop used for Conduit WS02004404WS02004405
  WARNING 03: negative offset ignored for Link YS02001904YS02001907
  
  ****************
  Analysis Options
  ****************
  Flow Units ............... LPS
  Process Models:
    Rainfall/Runoff ........ YES
    RDII ................... NO
    Snowmelt ............... NO
    Groundwater ............ NO
    Flow Routing ........... YES
    Ponding Allowed ........ NO
    Water Quality .......... NO
  Infiltration Method ...... HORTON
  Flow Routing Method ...... DYNWAVE
  Surcharge Method ......... EXTRAN
  Starting Date ............ 08/28/2015 08:00:00
  Ending Date .............. 08/28/2015 16:00:00
  Antecedent Dry Days ...... 8.0
  Report Time Step ......... 00:01:00
  Wet Time Step ............ 00:01:00
  Dry Time Step ............ 00:01:00
  Routing Time Step ........ 30.00 sec
  Variable Time Step ....... YES
  Maximum Trials ........... 8
  Number of Threads ........ 2
  Head Tolerance ........... 0.001500 m
  
  
  **************************        Volume         Depth
  Runoff Quantity Continuity     hectare-m            mm
  **************************     ---------       -------
  Initial LID Storage ......         0.049         1.488
  Total Precipitation ......         8.350       251.731
  Evaporation Loss .........         0.000         0.000
  Infiltration Loss ........         0.086         2.584
  Surface Runoff ...........         7.434       224.116
  Final Storage ............         0.882        26.587
  Continuity Error (%) .....        -0.027
  
  
  **************************        Volume        Volume
  Flow Routing Continuity        hectare-m      10^6 ltr
  **************************     ---------     ---------
  Dry Weather Inflow .......         0.025         0.251
  Wet Weather Inflow .......         7.434        74.343
  Groundwater Inflow .......         0.000         0.000
  RDII Inflow ..............         0.000         0.000
  External Inflow ..........         0.083         0.834
  External Outflow .........         2.264        22.645
  Flooding Loss ............         5.373        53.732
  Evaporation Loss .........         0.000         0.000
  Exfiltration Loss ........         0.000         0.000
  Initial Stored Volume ....         0.243         2.431
  Final Stored Volume ......         0.182         1.815
  Continuity Error (%) .....        -0.429
  
  
  *************************
  Highest Continuity Errors
  *************************
  Node YS02001884 (5.05%)
  Node YS02001583 (-3.29%)
  Node WS02006256 (-2.48%)
  
  
  ***************************
  Time-Step Critical Elements
  ***************************
  Link WS02006252WS02006251 (35.07%)
  Link WS02004404WS02004405 (16.83%)
  Link WS02006235WS02006234 (12.91%)
  Link WS02006238WS02006235 (12.70%)
  Link WS02003066WSF200 (6.79%)
  
  
  ********************************
  Highest Flow Instability Indexes
  ********************************
  Link WS02006113WS02006111 (46)
  Link WS02006111WS02006112 (25)
  Link WS02006238WS02006235 (24)
  Link WS02004404WS02004405 (23)
  Link WS02006252WS02006251 (21)
  
  
  *********************************
  Most Frequent Nonconverging Nodes
  *********************************
  Node CC-1 (20.18%)
  Node CC-2 (20.18%)
  Node JK-1 (20.18%)
  Node JK-2 (20.18%)
  Node WSC (20.18%)
  
  
  *************************
  Routing Time Step Summary
  *************************
  Minimum Time Step           :     0.01 sec
  Average Time Step           :     2.32 sec
  Maximum Time Step           :    30.00 sec
  % of Time in Steady State   :     0.00
  Average Iterations per Step :     3.70
  % of Steps Not Converging   :    20.18
  Time Step Frequencies       :
     30.000 - 13.228 sec      :     0.01 %
     13.228 -  5.833 sec      :    10.03 %
      5.833 -  2.572 sec      :    25.39 %
      2.572 -  1.134 sec      :    24.15 %
      1.134 -  0.500 sec      :    40.43 %
  
  
  ***************************
  Subcatchment Runoff Summary
  ***************************
  
  ------------------------------------------------------------------------------------------------------------------------------
                            Total      Total      Total      Total     Imperv       Perv      Total       Total     Peak  Runoff
                           Precip      Runon       Evap      Infil     Runoff     Runoff     Runoff      Runoff   Runoff   Coeff
  Subcatchment                 mm         mm         mm         mm         mm         mm         mm    10^6 ltr      LPS
  ------------------------------------------------------------------------------------------------------------------------------
  sub60                    316.61       0.00       0.00       1.49     214.17      27.84     283.23        3.72  3170.84   0.895
  sub61                    316.61       0.00       0.00       2.30     213.97      41.71     288.65        5.30  4396.91   0.912
  sub62                    316.61       0.00       0.00       1.01     228.17      18.92     285.64        7.83  6433.88   0.902
  sub63                    316.61       0.00       0.00       4.29     183.27      70.89     286.93        6.51  5268.51   0.906
  sub64                    316.61       0.00       0.00       2.05     208.77      34.96     283.64        6.81  5513.80   0.896
  sub65                    316.61       0.00       0.00       1.88     225.38      31.95     289.53        7.97  6186.52   0.914
  sub66                    316.61       0.00       0.00       5.14     177.44      67.67     282.51       13.17  9635.15   0.892
  sub67                     66.42       0.00       0.00       0.95      48.26       3.34      51.60        0.96   622.73   0.777
  sub68                     66.42       0.00       0.00       1.64      42.62       5.44      48.06        1.32   766.11   0.724
  sub69                    316.61       0.00       0.00       1.69     213.21      35.95     286.67       10.61  8339.22   0.905
  sub70                    316.61       0.00       0.00       5.89     170.99      82.25     285.99        8.26  5611.68   0.903
  sub71                     66.42       0.00       0.00       0.88      42.76       2.92      45.68        1.19   624.17   0.688
  sub72                     66.42       0.00       0.00       0.83      46.19       2.72      48.91        0.67   313.65   0.736
  

  ***********************
  LID Performance Summary
  ***********************

  --------------------------------------------------------------------------------------------------------------------
                                         Total      Evap     Infil   Surface    Drain    Initial     Final  Continuity
                                        Inflow      Loss      Loss   Outflow   Outflow   Storage   Storage       Error
  Subcatchment      LID Control             mm        mm        mm        mm        mm        mm        mm           %
  --------------------------------------------------------------------------------------------------------------------
  sub60             GreenRoof           316.61      0.00      0.00    180.56      0.00      7.05    143.11        0.00
  sub61             GreenRoof           316.61      0.00      0.00    180.56      0.00      7.05    143.11        0.00
  sub62             GreenRoof           316.61      0.00      0.00    180.56      0.00      7.05    143.11        0.00
  sub63             GreenRoof           316.61      0.00      0.00    180.56      0.00      7.05    143.11        0.00
  sub64             GreenRoof           316.61      0.00      0.00    180.56      0.00      7.05    143.11        0.00
  sub65             GreenRoof           316.61      0.00      0.00    180.56      0.00      7.05    143.11        0.00
  sub66             GreenRoof           316.61      0.00      0.00    180.56      0.00      7.05    143.11        0.00
  sub67             GreenRoof            66.42      0.00      0.00      0.00      0.00      7.05     73.52       -0.07
  sub68             GreenRoof            66.42      0.00      0.00      0.00      0.00      7.05     73.52       -0.07
  sub69             GreenRoof           316.61      0.00      0.00    180.56      0.00      7.05    143.11        0.00
  sub70             GreenRoof           316.61      0.00      0.00    180.56      0.00      7.05    143.11        0.00
  sub71             GreenRoof            66.42      0.00      0.00      0.00      0.00      7.05     73.52       -0.07
  sub72             GreenRoof            66.42      0.00      0.00      0.00      0.00      7.05     73.52       -0.07
  
  ******************
  Node Depth Summary
  ******************
  
  ---------------------------------------------------------------------------------
                                 Average  Maximum  Maximum  Time of Max    Reported
                                   Depth    Depth      HGL   Occurrence   Max Depth
  Node                 Type       Meters   Meters   Meters  days hr:min      Meters
  ---------------------------------------------------------------------------------
  WS02003060           JUNCTION     0.23     0.38     5.32     0  02:13        0.38
  WS02003066           JUNCTION     0.19     0.30     5.85     0  02:13        0.30
  WS02003067           JUNCTION     0.50     0.70     6.02     0  02:12        0.70
  WS02003069           JUNCTION     0.25     0.43     5.01     0  02:14        0.43
  WS02003072           JUNCTION     0.32     0.50     4.87     0  02:14        0.50
  WS02003073           JUNCTION     0.18     0.30     4.36     0  02:15        0.30
  WS02004401           JUNCTION     0.61     0.88     6.88     0  01:56        0.88
  WS02004402           JUNCTION     0.64     0.90     6.86     0  01:55        0.90
  WS02004403           JUNCTION     0.67     0.92     6.85     0  01:54        0.92
  WS02004404           JUNCTION     0.75     1.03     6.88     0  01:54        0.99
  WS02004405           JUNCTION     0.73     0.97     6.82     0  01:56        0.96
  WS02004406           JUNCTION     0.74     0.96     6.79     0  01:55        0.96
  WS02004407           JUNCTION     0.18     0.30     6.61     0  02:11        0.30
  WS02004409           JUNCTION     0.39     0.67     6.44     0  02:11        0.67
  WS02004410           JUNCTION     0.42     0.68     6.40     0  02:12        0.68
  WS02004411           JUNCTION     0.44     0.69     6.37     0  02:12        0.69
  WS02004412           JUNCTION     0.46     0.70     6.34     0  02:12        0.70
  WS02004413           JUNCTION     0.63     0.86     6.33     0  02:12        0.86
  WS02006109           JUNCTION     0.66     1.14     7.76     0  03:26        0.98
  WS02006110           JUNCTION     0.66     1.21     7.80     0  02:00        0.94
  WS02006111           JUNCTION     0.18     0.90     7.60     0  00:00        0.40
  WS02006112           JUNCTION     0.77     2.68     8.56     0  00:00        1.14
  WS02006113           JUNCTION     0.28     1.40     8.29     0  00:00        0.46
  WS02006115           JUNCTION     0.49     1.65     7.79     0  00:00        0.86
  WS02006116           JUNCTION     0.58     1.06     7.10     0  00:00        0.85
  WS02006228           JUNCTION     0.66     1.25     7.90     0  02:00        1.25
  WS02006229           JUNCTION     0.63     1.30     7.99     0  02:00        1.30
  WS02006230           JUNCTION     0.63     1.43     8.17     0  02:00        1.28
  WS02006231           JUNCTION     0.43     1.19     8.31     0  02:00        1.19
  WS02006232           JUNCTION     0.56     1.84     8.87     0  03:26        1.84
  WS02006234           JUNCTION     0.49     1.96     9.12     0  03:26        1.96
  WS02006235           JUNCTION     0.53     2.00     9.16     0  03:26        2.00
  WS02006238           JUNCTION     0.56     2.15     9.29     0  03:26        2.15
  WS02006239           JUNCTION     0.53     2.03     9.24     0  03:26        2.03
  WS02006240           JUNCTION     0.50     2.10     9.39     0  03:26        2.10
  WS02006242           JUNCTION     0.57     1.55     8.82     0  01:37        1.55
  WS02006243           JUNCTION     0.49     1.48     8.90     0  01:37        1.48
  WS02006245           JUNCTION     0.49     1.56     9.05     0  03:26        1.56
  WS02006247           JUNCTION     0.52     1.47     8.97     0  03:26        1.47
  WS02006248           JUNCTION     0.48     1.10     8.69     0  01:37        1.10
  WS02006249           JUNCTION     0.51     1.09     8.69     0  01:29        1.09
  WS02006251           JUNCTION     0.50     1.57     9.24     0  03:15        1.14
  WS02006252           JUNCTION     0.35     1.50     9.74     0  01:25        1.07
  WS02006256           JUNCTION     0.98     2.35     9.28     0  00:09        2.35
  WSF200               JUNCTION     0.16     0.29     5.52     0  02:13        0.29
  YS02001580           JUNCTION     0.22     0.93     9.47     0  01:25        0.77
  YS02001583           JUNCTION     0.25     0.90     9.40     0  01:25        0.82
  YS02001586           JUNCTION     0.37     1.13     9.30     0  01:25        1.13
  YS02001590           JUNCTION     0.50     1.40     9.26     0  01:25        1.37
  YS02001593           JUNCTION     0.43     1.33     9.19     0  01:25        1.29
  YS02001596           JUNCTION     0.57     1.69     9.11     0  01:25        1.66
  YS02001600           JUNCTION     0.66     1.87     9.00     0  01:25        1.86
  YS02001601           JUNCTION     0.84     2.06     8.90     0  01:24        2.06
  YS02001602           JUNCTION     0.73     1.87     8.77     0  01:37        1.87
  YS02001605           JUNCTION     0.68     1.78     8.68     0  01:46        1.78
  YS02001607           JUNCTION     0.64     1.68     8.53     0  01:46        1.68
  YS02001610           JUNCTION     0.68     1.68     8.48     0  01:39        1.68
  YS02001613           JUNCTION     0.65     1.67     8.51     0  02:42        1.67
  YS02001616           JUNCTION     0.58     1.61     8.52     0  01:59        1.61
  YS02001619           JUNCTION     0.57     1.61     8.54     0  02:12        1.61
  YS02001622           JUNCTION     0.56     1.59     8.49     0  02:46        1.59
  YS02001625           JUNCTION     0.78     1.78     8.38     0  01:39        1.78
  YS02001629           JUNCTION     0.70     1.85     8.40     0  01:43        1.85
  YS02001633           JUNCTION     0.78     2.08     8.53     0  02:23        2.08
  YS02001641           JUNCTION     0.75     2.00     8.44     0  02:50        2.00
  YS02001644           JUNCTION     0.74     1.92     8.35     0  01:49        1.92
  YS02001647           JUNCTION     0.54     1.79     8.40     0  02:32        1.79
  YS02001649           JUNCTION     0.62     2.05     8.44     0  02:18        2.05
  YS02001652           JUNCTION     0.51     2.15     8.75     0  02:39        2.15
  YS02001655           JUNCTION     0.42     2.20     9.05     0  02:27        2.20
  YS02001658           JUNCTION     0.34     2.30     9.44     0  02:29        2.30
  YS02001661           JUNCTION     0.32     2.44     9.85     0  02:30        2.44
  YS02001664           JUNCTION     0.18     2.31    10.23     0  02:29        2.31
  YS02001745           JUNCTION     0.21     2.35     9.87     0  02:35        2.35
  YS02001748           JUNCTION     0.32     2.27     9.35     0  02:33        2.27
  YS02001751           JUNCTION     0.37     2.19     9.07     0  02:32        2.19
  YS02001754           JUNCTION     0.47     2.19     8.80     0  02:32        2.18
  YS02001757           JUNCTION     0.65     2.21     8.47     0  02:27        2.21
  YS02001759           JUNCTION     0.60     2.21     8.57     0  02:27        2.21
  YS02001762           JUNCTION     0.58     2.15     8.55     0  02:27        2.15
  YS02001765           JUNCTION     0.56     2.10     8.55     0  02:39        2.10
  YS02001767           JUNCTION     0.55     2.03     8.52     0  02:27        2.03
  YS02001770           JUNCTION     0.55     1.95     8.45     0  02:16        1.95
  YS02001774           JUNCTION     0.61     2.01     8.43     0  02:27        2.01
  YS02001779           JUNCTION     0.44     1.68     8.37     0  01:54        1.68
  YS02001783           JUNCTION     0.24     1.30     7.44     0  01:27        1.23
  YS02001784           JUNCTION     0.25     1.18     7.25     0  01:27        1.11
  YS02001786           JUNCTION     0.21     1.03     7.06     0  01:26        0.87
  YS02001788           JUNCTION     0.15     0.62     6.60     0  01:28        0.62
  YS02001790           JUNCTION     0.18     0.72     6.37     0  01:28        0.71
  YS02001791           JUNCTION     0.11     0.44     5.91     0  01:28        0.42
  YS02001793           JUNCTION     0.06     0.29     5.12     0  01:29        0.29
  YS02001882           JUNCTION     0.31     1.79     8.51     0  01:26        1.62
  YS02001884           JUNCTION     0.39     1.86     8.48     0  01:26        1.72
  YS02001887           JUNCTION     0.47     1.88     8.42     0  01:26        1.80
  YS02001890           JUNCTION     0.50     1.81     8.32     0  01:26        1.81
  YS02001895           JUNCTION     0.28     1.71     8.46     0  01:26        1.56
  YS02001898           JUNCTION     0.29     1.77     8.51     0  01:26        1.56
  YS02001901           JUNCTION     0.39     1.76     8.37     0  01:26        1.67
  YS02001904           JUNCTION     0.37     1.64     8.27     0  01:27        1.63
  YS02001907           JUNCTION     0.67     1.96     8.25     0  01:27        1.96
  YS02001910           JUNCTION     0.48     2.02     8.52     0  01:27        1.80
  YS02001915           JUNCTION     0.31     2.00     8.72     0  01:26        1.66
  YS02001918           JUNCTION     0.17     1.81     8.88     0  01:27        1.35
  YS02001920           JUNCTION     0.25     2.10     9.11     0  01:27        1.46
  YS02001923           JUNCTION     0.13     2.03     9.29     0  01:27        1.29
  YS02001926           JUNCTION     0.16     1.90     9.35     0  01:27        1.16
  YS02001929           JUNCTION     0.09     1.78     9.47     0  01:27        0.99
  YS02006553           JUNCTION     0.67     1.98     8.27     0  01:27        1.97
  YS02006556           JUNCTION     0.65     1.97     8.29     0  01:27        1.94
  YS02006558           JUNCTION     0.69     2.02     8.29     0  01:27        1.98
  YS02006561           JUNCTION     0.15     0.97     7.63     0  01:27        0.89
  YS02163301           JUNCTION     0.73     1.96     8.48     0  02:27        1.96
  YS02163601           JUNCTION     0.81     2.08     8.48     0  01:49        2.08
  YS02164001           JUNCTION     0.74     2.02     8.48     0  02:50        2.02
  CC-1                 OUTFALL      0.00     0.00     0.00     0  00:00        0.00
  CC-2                 OUTFALL      0.00     0.00     0.00     0  00:00        0.00
  JK-1                 OUTFALL      0.00     0.00     0.00     0  00:00        0.00
  JK-2                 OUTFALL      0.00     0.00     0.00     0  00:00        0.00
  WSC                  OUTFALL      0.18     0.30     0.97     0  02:15        0.30
  CC-storage           STORAGE      1.01     2.30     7.80     0  02:53        2.30
  JK-storage           STORAGE      1.50     4.24     5.04     0  01:30        4.19
  
  
  *******************
  Node Inflow Summary
  *******************
  
  -------------------------------------------------------------------------------------------------
                                  Maximum  Maximum                  Lateral       Total        Flow
                                  Lateral    Total  Time of Max      Inflow      Inflow     Balance
                                   Inflow   Inflow   Occurrence      Volume      Volume       Error
  Node                 Type           LPS      LPS  days hr:min    10^6 ltr    10^6 ltr     Percent
  -------------------------------------------------------------------------------------------------
  WS02003060           JUNCTION     16.53   554.58     0  02:13       0.476        5.78       0.041
  WS02003066           JUNCTION      0.00   537.30     0  02:13           0        5.31       0.027
  WS02003067           JUNCTION      0.00   537.10     0  02:12           0        5.31       0.079
  WS02003069           JUNCTION      0.32   554.22     0  02:13     0.00922        5.79       0.069
  WS02003072           JUNCTION      0.00   553.12     0  02:14           0        5.79       0.122
  WS02003073           JUNCTION      1.82   554.42     0  02:14      0.0524        5.83       0.099
  WS02004401           JUNCTION      0.00  1677.78     0  00:00           0        5.42       0.212
  WS02004402           JUNCTION      0.00  1171.33     0  00:01           0        5.41       0.208
  WS02004403           JUNCTION      0.00   884.75     0  00:01           0        5.39       0.200
  WS02004404           JUNCTION      0.16   832.59     0  00:01     0.00467        5.39       0.137
  WS02004405           JUNCTION      0.04   776.49     0  00:01      0.0011        5.38       0.186
  WS02004406           JUNCTION      0.00   711.76     0  00:02           0        5.37       0.405
  WS02004407           JUNCTION      0.00   539.82     0  02:11           0        5.35       0.021
  WS02004409           JUNCTION      0.00   539.37     0  02:11           0        5.35       0.051
  WS02004410           JUNCTION      0.00   538.79     0  02:11           0        5.35       0.085
  WS02004411           JUNCTION      0.00   538.18     0  02:12           0        5.34       0.109
  WS02004412           JUNCTION      0.00   537.92     0  02:12           0        5.34       0.142
  WS02004413           JUNCTION      0.00   537.79     0  02:12           0        5.33       0.258
  WS02006109           JUNCTION      1.23  1308.01     0  00:00      0.0354        5.35       0.117
  WS02006110           JUNCTION      0.00   571.73     0  02:00           0        5.32      -0.674
  WS02006111           JUNCTION      0.00  1176.04     0  00:00           0        5.35      -0.717
  WS02006112           JUNCTION      0.00  2307.30     0  00:00           0        5.39      -0.016
  WS02006113           JUNCTION      0.00   578.23     0  03:26           0        5.31      -0.927
  WS02006115           JUNCTION      0.00   899.27     0  00:00           0        5.36      -0.600
  WS02006116           JUNCTION      0.00  1098.16     0  00:01           0        5.39      -0.476
  WS02006228           JUNCTION      0.00   567.08     0  02:00           0        5.29       0.056
  WS02006229           JUNCTION      0.00   570.16     0  03:26           0        5.28       0.161
  WS02006230           JUNCTION     10.28   590.68     0  03:15       0.296        5.26       0.003
  WS02006231           JUNCTION      0.00   588.29     0  03:15           0        4.95      -0.006
  WS02006232           JUNCTION      0.00   586.80     0  03:15           0        4.96       0.188
  WS02006234           JUNCTION      0.00   579.80     0  03:15           0        4.94      -0.259
  WS02006235           JUNCTION      0.00   567.35     0  03:15           0        5.02       0.260
  WS02006238           JUNCTION      0.00   431.63     0  03:16           0        4.19      -0.097
  WS02006239           JUNCTION      0.00   431.26     0  03:16           0        4.14      -0.060
  WS02006240           JUNCTION      0.00   428.57     0  03:16           0        4.12      -0.000
  WS02006242           JUNCTION      0.00   427.76     0  03:16           0        4.13       0.077
  WS02006243           JUNCTION      0.00   428.71     0  03:15           0        4.13      -0.027
  WS02006245           JUNCTION      0.00   429.60     0  03:15           0        4.14       0.278
  WS02006247           JUNCTION      0.00   429.88     0  03:15           0        4.14       0.003
  WS02006248           JUNCTION      0.00   429.18     0  03:15           0        4.14       0.013
  WS02006249           JUNCTION      0.00   824.67     0  00:05           0        4.33       0.350
  WS02006251           JUNCTION      0.08   460.09     0  00:05     0.00222        4.32      -0.368
  WS02006252           JUNCTION      0.00   400.00     0  00:05           0         4.3      -0.322
  WS02006256           JUNCTION      0.00   300.00     0  00:15           0         1.2      -2.423
  WSF200               JUNCTION      0.00   537.45     0  02:13           0        5.31       0.008
  YS02001580           JUNCTION      0.00    57.98     0  01:25           0     0.00435       0.226
  YS02001583           JUNCTION      0.00    90.76     0  01:25           0      0.0162      -3.186
  YS02001586           JUNCTION   5611.68  5611.69     0  02:36        8.26        8.27       0.009
  YS02001590           JUNCTION      0.00   320.68     0  01:46           0        2.43      -0.032
  YS02001593           JUNCTION      0.00   319.85     0  01:46           0        2.43       0.011
  YS02001596           JUNCTION      0.00   318.26     0  02:54           0        2.43      -0.001
  YS02001600           JUNCTION      0.00   318.24     0  02:27           0        2.43       0.008
  YS02001601           JUNCTION   8339.22  8656.72     0  02:36        10.6          13       0.000
  YS02001602           JUNCTION      0.00   502.48     0  01:25           0        3.44       0.014
  YS02001605           JUNCTION      0.00   502.21     0  01:25           0        3.11       0.017
  YS02001607           JUNCTION      0.00   501.47     0  01:25           0        3.11       0.056
  YS02001610           JUNCTION      0.00   955.85     0  02:45           0        4.89       0.046
  YS02001613           JUNCTION      0.00   619.28     0  02:45           0        3.35       0.045
  YS02001616           JUNCTION      0.00   619.51     0  02:44           0        3.35       0.008
  YS02001619           JUNCTION   9635.15  9635.15     0  02:36        13.2        14.7      -0.004
  YS02001622           JUNCTION      0.00  1054.22     0  02:27           0        7.24      -0.001
  YS02001625           JUNCTION      0.00  1505.62     0  02:27           0        8.58       0.143
  YS02001629           JUNCTION      0.00  1139.41     0  02:42           0        5.42      -0.014
  YS02001633           JUNCTION   6186.72  6186.72     0  02:36        7.98          11       0.027
  YS02001641           JUNCTION      0.00  1297.18     0  01:37           0        6.68       0.049
  YS02001644           JUNCTION   5513.84  7265.49     0  02:36        6.81        14.9       0.016
  YS02001647           JUNCTION      0.00  1607.67     0  01:37           0        7.52       0.001
  YS02001649           JUNCTION      0.00  3236.40     0  02:39           0        12.3       0.002
  YS02001652           JUNCTION      0.00  2429.42     0  02:39           0        5.62      -0.021
  YS02001655           JUNCTION      0.15  2731.44     0  02:39     0.00443        5.82       0.009
  YS02001658           JUNCTION      0.00  2783.80     0  02:33           0        5.84      -0.053
  YS02001661           JUNCTION      0.00  2783.79     0  02:32           0        5.84      -0.037
  YS02001664           JUNCTION   5268.51  5268.51     0  02:36        6.51        6.51      -0.000
  YS02001745           JUNCTION   3170.84  3170.84     0  02:36        3.72        3.72       0.037
  YS02001748           JUNCTION      0.04  3116.35     0  02:36      0.0013        3.72      -0.074
  YS02001751           JUNCTION      0.01  2353.32     0  02:37    0.000317        3.61       0.036
  YS02001754           JUNCTION      0.26  2353.58     0  02:37     0.00749        3.62      -0.048
  YS02001757           JUNCTION      0.00  3760.87     0  02:37           0        18.4       0.017
  YS02001759           JUNCTION   4396.95  4396.95     0  02:36         5.3        7.46      -0.011
  YS02001762           JUNCTION      0.00   724.36     0  02:39           0        2.94      -0.001
  YS02001765           JUNCTION      0.00   723.06     0  02:39           0        2.94       0.001
  YS02001767           JUNCTION      0.54   723.38     0  02:39      0.0154        2.94       0.002
  YS02001770           JUNCTION   6434.03  7156.19     0  02:36        7.83        8.66      -0.011
  YS02001774           JUNCTION      0.00   852.58     0  02:42           0        2.07       0.046
  YS02001779           JUNCTION      0.01   851.99     0  02:27    0.000144        2.02      -0.010
  YS02001783           JUNCTION      0.00  1155.64     0  01:27           0        3.67       0.005
  YS02001784           JUNCTION      1.06  1156.66     0  01:27      0.0305        3.71       0.014
  YS02001786           JUNCTION      0.06  1156.98     0  01:27     0.00162        3.71       0.013
  YS02001788           JUNCTION      0.07  1158.29     0  01:27     0.00204        3.71       0.007
  YS02001790           JUNCTION      0.15  1173.43     0  01:27     0.00446        3.71       0.019
  YS02001791           JUNCTION      0.00  1284.52     0  01:28           0        3.71      -0.013
  YS02001793           JUNCTION      0.00  1236.88     0  01:29           0        3.71       0.007
  YS02001882           JUNCTION      0.00   136.15     0  01:26           0      0.0131       5.195
  YS02001884           JUNCTION      0.00   222.99     0  01:25           0      0.0489       5.319
  YS02001887           JUNCTION    623.18   634.39     0  01:26       0.973        1.01       0.445
  YS02001890           JUNCTION      0.00   640.60     0  01:26           0       0.965       0.528
  YS02001895           JUNCTION      0.00   645.48     0  01:26           0       0.949       0.179
  YS02001898           JUNCTION      0.00   648.87     0  01:26           0       0.948      -0.091
  YS02001901           JUNCTION      0.00   650.84     0  01:26           0       0.955       0.356
  YS02001904           JUNCTION      0.00   651.02     0  01:26           0       0.978       0.286
  YS02001907           JUNCTION      0.00  1615.49     0  01:28           0        2.93       0.631
  YS02001910           JUNCTION      0.00  1081.41     0  01:28           0        1.96       0.382
  YS02001915           JUNCTION    624.19  1080.85     0  01:28         1.2        2.02       0.054
  YS02001918           JUNCTION      0.00   836.99     0  01:26           0       0.849       0.001
  YS02001920           JUNCTION      2.87   774.08     0  01:26      0.0827       0.818       0.091
  YS02001923           JUNCTION      0.04  1081.82     0  01:26     0.00109       0.716      -0.209
  YS02001926           JUNCTION      0.05  1372.86     0  01:27      0.0015       0.696      -0.393
  YS02001929           JUNCTION    313.65  1188.96     0  01:27       0.673        0.68      -0.259
  YS02006553           JUNCTION      0.00   790.69     0  01:44           0        2.39       0.499
  YS02006556           JUNCTION      0.00   790.36     0  01:44           0        2.41       0.343
  YS02006558           JUNCTION    766.99  1183.94     0  01:26        1.35        3.72       0.101
  YS02006561           JUNCTION      0.00  1186.98     0  01:26           0        3.67      -0.004
  YS02163301           JUNCTION      0.00  1139.15     0  02:28           0        5.43       0.028
  YS02163601           JUNCTION      0.11  1297.07     0  01:37     0.00317        6.67       0.074
  YS02164001           JUNCTION      0.00  1297.53     0  01:37           0        6.67       0.032
  CC-1                 OUTFALL       0.00   683.00     0  00:15           0        7.36       0.000
  CC-2                 OUTFALL       0.00   683.00     0  00:10           0        6.82       0.000
  JK-1                 OUTFALL       0.00  1000.00     0  01:29           0        1.94       0.000
  JK-2                 OUTFALL       0.00  1000.00     0  00:10           0       0.706       0.000
  WSC                  OUTFALL       0.00   553.98     0  02:15           0        5.83       0.000
  CC-storage           STORAGE       0.00  2806.03     0  01:59           0        19.9      -0.158
  JK-storage           STORAGE       0.00  1243.86     0  01:36           0        3.86      -0.452
  
  
  **********************
  Node Surcharge Summary
  **********************
  
  Surcharging occurs when water rises above the top of the highest conduit.
  ---------------------------------------------------------------------
                                               Max. Height   Min. Depth
                                   Hours       Above Crown    Below Rim
  Node                 Type      Surcharged         Meters       Meters
  ---------------------------------------------------------------------
  WS02004404           JUNCTION        0.02          0.033        2.747
  WS02006109           JUNCTION        2.53          0.319        1.501
  WS02006110           JUNCTION        0.59          0.303        1.547
  WS02006111           JUNCTION        0.01          0.087        1.783
  WS02006112           JUNCTION        0.75          1.680        0.000
  WS02006113           JUNCTION        0.01          0.600        1.330
  WS02006115           JUNCTION        0.01          0.642        1.608
  WS02006116           JUNCTION        0.01          0.000        2.290
  WS02006228           JUNCTION        2.53          0.421        1.779
  WS02006229           JUNCTION        2.53          0.497        1.953
  WS02006230           JUNCTION        0.58          0.345        1.225
  WS02006231           JUNCTION        0.72          0.478        1.052
  WS02006232           JUNCTION        2.57          1.136        0.344
  WS02006234           JUNCTION        1.24          1.240        0.000
  WS02006235           JUNCTION        2.50          1.290        0.000
  WS02006238           JUNCTION        2.54          1.430        0.000
  WS02006239           JUNCTION        2.52          1.290        0.000
  WS02006240           JUNCTION        2.53          1.390        0.000
  WS02006242           JUNCTION        2.55          0.820        0.000
  WS02006243           JUNCTION        2.43          0.770        0.000
  WS02006245           JUNCTION        2.42          0.850        0.000
  WS02006247           JUNCTION        2.42          0.760        0.000
  WS02006248           JUNCTION        2.40          0.380        0.000
  WS02006249           JUNCTION        2.40          0.390        0.000
  WS02006251           JUNCTION        0.80          0.543        0.637
  WS02006252           JUNCTION        2.62          1.100        0.000
  WS02006256           JUNCTION        7.21          2.050        0.000
  YS02001580           JUNCTION        1.69          0.331        0.119
  YS02001583           JUNCTION        1.70          0.263        0.237
  YS02001586           JUNCTION        1.81          0.510        0.000
  YS02001590           JUNCTION        1.89          0.750        0.000
  YS02001593           JUNCTION        1.89          0.711        0.129
  YS02001596           JUNCTION        2.00          0.956        0.114
  YS02001600           JUNCTION        2.12          1.190        0.000
  YS02001601           JUNCTION        2.34          1.440        0.000
  YS02001602           JUNCTION        2.29          1.270        0.000
  YS02001605           JUNCTION        2.26          1.180        0.000
  YS02001607           JUNCTION        1.90          0.680        0.000
  YS02001610           JUNCTION        1.93          0.680        0.000
  YS02001613           JUNCTION        1.90          0.670        0.030
  YS02001616           JUNCTION        1.86          0.610        0.000
  YS02001619           JUNCTION        1.84          0.610        0.000
  YS02001622           JUNCTION        1.85          0.586        0.034
  YS02001625           JUNCTION        2.04          0.780        0.000
  YS02001629           JUNCTION        1.75          0.470        0.000
  YS02001633           JUNCTION        2.10          1.060        0.000
  YS02001641           JUNCTION        2.07          0.999        0.101
  YS02001644           JUNCTION        2.04          0.920        0.000
  YS02001647           JUNCTION        1.71          0.793        0.107
  YS02001649           JUNCTION        1.84          1.050        0.000
  YS02001652           JUNCTION        1.65          1.121        0.009
  YS02001655           JUNCTION        1.44          1.200        0.000
  YS02001658           JUNCTION        1.14          1.300        0.000
  YS02001661           JUNCTION        0.61          1.374        0.016
  YS02001664           JUNCTION        0.39          1.310        0.000
  YS02001745           JUNCTION        0.40          1.350        0.000
  YS02001748           JUNCTION        1.03          1.190        0.000
  YS02001751           JUNCTION        1.32          1.194        0.006
  YS02001754           JUNCTION        1.57          1.137        0.013
  YS02001757           JUNCTION        1.92          1.210        0.000
  YS02001759           JUNCTION        1.83          1.210        0.000
  YS02001762           JUNCTION        1.80          1.150        0.000
  YS02001765           JUNCTION        1.76          1.100        0.000
  YS02001767           JUNCTION        1.73          1.027        0.003
  YS02001770           JUNCTION        1.71          0.920        0.000
  YS02001774           JUNCTION        1.78          1.010        0.040
  YS02001779           JUNCTION        1.56          0.680        0.000
  YS02001783           JUNCTION        0.45          0.498        1.102
  YS02001784           JUNCTION        0.43          0.377        1.113
  YS02001786           JUNCTION        0.33          0.234        1.196
  YS02001882           JUNCTION        0.40          0.794        0.036
  YS02001884           JUNCTION        0.41          0.802        0.068
  YS02001887           JUNCTION        0.45          0.829        0.121
  YS02001890           JUNCTION        0.46          0.760        0.000
  YS02001895           JUNCTION        0.39          0.712        0.038
  YS02001898           JUNCTION        0.38          0.740        0.000
  YS02001901           JUNCTION        0.43          0.757        0.113
  YS02001904           JUNCTION        0.42          0.642        0.208
  YS02001907           JUNCTION        0.62          0.950        0.000
  YS02001910           JUNCTION        0.48          1.016        0.084
  YS02001915           JUNCTION        0.40          1.000        0.000
  YS02001918           JUNCTION        0.31          0.810        0.000
  YS02001920           JUNCTION        0.33          1.104        0.036
  YS02001923           JUNCTION        0.02          0.820        0.000
  YS02001926           JUNCTION        0.02          0.900        0.000
  YS02001929           JUNCTION        0.01          0.780        0.000
  YS02006553           JUNCTION        0.64          0.983        0.207
  YS02006556           JUNCTION        0.55          0.935        0.415
  YS02006558           JUNCTION        0.54          0.921        0.479
  YS02006561           JUNCTION        0.28          0.171        0.979
  YS02163301           JUNCTION        2.07          0.958        0.072
  YS02163601           JUNCTION        2.15          1.080        0.000
  YS02164001           JUNCTION        2.06          1.019        0.081
  
  
  *********************
  Node Flooding Summary
  *********************
  
  Flooding refers to all water that overflows a node, whether it ponds or not.
  --------------------------------------------------------------------------
                                                             Total   Maximum
                                 Maximum   Time of Max       Flood    Ponded
                        Hours       Rate    Occurrence      Volume     Depth
  Node                 Flooded       LPS   days hr:min    10^6 ltr    Meters
  --------------------------------------------------------------------------
  WS02006112              0.01   1547.89      0  00:00       0.047     0.000
  WS02006234              0.01      3.52      0  03:26       0.000     0.000
  WS02006235              0.01      7.52      0  03:26       0.000     0.000
  WS02006238              0.01      7.33      0  03:26       0.000     0.000
  WS02006239              0.01      2.97      0  03:26       0.000     0.000
  WS02006240              0.01      4.25      0  03:26       0.000     0.000
  WS02006242              0.01     18.31      0  01:37       0.000     0.000
  WS02006243              0.01     75.29      0  01:37       0.000     0.000
  WS02006245              0.01      1.43      0  03:26       0.000     0.000
  WS02006247              0.01      1.06      0  03:26       0.000     0.000
  WS02006248              0.01     22.34      0  03:26       0.000     0.000
  WS02006249              0.75    117.80      0  01:37       0.179     0.000
  WS02006252              0.01      0.91      0  01:25       0.000     0.000
  WS02006256              1.11    287.78      0  01:25       0.392     0.000
  YS02001586              1.49   5292.72      0  02:36       5.831     0.000
  YS02001590              0.01      7.64      0  01:25       0.000     0.000
  YS02001600              0.01      2.28      0  01:25       0.000     0.000
  YS02001601              1.75   8252.55      0  02:36       9.602     0.000
  YS02001602              1.54     62.17      0  02:42       0.333     0.000
  YS02001605              0.01      0.16      0  02:27       0.000     0.000
  YS02001607              0.01      0.75      0  01:46       0.000     0.000
  YS02001610              1.47    954.63      0  02:45       3.332     0.000
  YS02001616              0.08      2.68      0  02:26       0.000     0.000
  YS02001619              0.60   7961.02      0  02:36       5.706     0.000
  YS02001625              1.45   1505.33      0  02:27       5.561     0.000
  YS02001629              0.66    687.07      0  02:42       1.070     0.000
  YS02001633              0.33   4139.59      0  02:36       1.904     0.000
  YS02001644              1.04   7260.29      0  02:36       8.737     0.000
  YS02001649              0.39   2389.70      0  02:39       2.144     0.000
  YS02001655              0.21    303.30      0  02:32       0.200     0.000
  YS02001658              0.17     52.19      0  02:33       0.031     0.000
  YS02001664              0.17   2479.53      0  02:36       0.677     0.000
  YS02001745              0.01     58.64      0  02:36       0.001     0.000
  YS02001748              0.08    762.42      0  02:36       0.115     0.000
  YS02001757              0.15    632.49      0  02:37       0.218     0.000
  YS02001759              0.18   2262.04      0  02:36       0.656     0.000
  YS02001762              0.05      2.39      0  02:30       0.000     0.000
  YS02001765              0.01      0.85      0  02:39       0.000     0.000
  YS02001770              0.49   6297.77      0  02:36       4.468     0.000
  YS02001779              0.91    851.60      0  02:27       1.999     0.000
  YS02001890              0.06    180.14      0  01:26       0.011     0.000
  YS02001898              0.01    318.13      0  01:26       0.001     0.000
  YS02001907              0.25   1225.20      0  01:28       0.511     0.000
  YS02001915              0.01    287.96      0  01:26       0.000     0.000
  YS02001918              0.01    202.59      0  01:27       0.003     0.000
  YS02001923              0.01    233.03      0  01:27       0.001     0.000
  YS02001926              0.01    491.59      0  01:27       0.003     0.000
  YS02001929              0.01    948.03      0  01:27       0.003     0.000
  YS02163601              0.01      4.94      0  01:49       0.000     0.000
  CC-storage              0.07     86.55      0  02:53       0.013     0.000
  
  
  **********************
  Storage Volume Summary
  **********************
  
  ------------------------------------------------------------------------------------------------
                         Average    Avg   Evap  Exfil     Maximum    Max    Time of Max    Maximum
                          Volume   Pcnt   Pcnt   Pcnt      Volume   Pcnt     Occurrence    Outflow
  Storage Unit           1000 m³   Full   Loss   Loss     1000 m³   Full    days hr:min        LPS
  ------------------------------------------------------------------------------------------------
  CC-storage               2.823   44.0    0.0    0.0       6.410  100.0       0  02:53    1766.00
  JK-storage               0.076   25.9    0.0    0.0       0.213   73.0       0  01:30    2300.00
  
  
  ***********************
  Outfall Loading Summary
  ***********************
  
  -----------------------------------------------------------
                         Flow       Avg       Max       Total
                         Freq      Flow      Flow      Volume
  Outfall Node           Pcnt       LPS       LPS    10^6 ltr
  -----------------------------------------------------------
  CC-1                  57.34    683.00    683.00       7.356
  CC-2                  48.57    683.00    683.00       6.820
  JK-1                  11.31   1000.00   1000.00       1.936
  JK-2                   4.04   1000.00   1000.00       0.706
  WSC                   99.99    249.02    553.98       5.826
  -----------------------------------------------------------
  System                44.25   3615.02   3902.67      22.645
  
  
  ********************
  Link Flow Summary
  ********************
  
  -----------------------------------------------------------------------------
                                 Maximum  Time of Max   Maximum    Max/    Max/
                                  |Flow|   Occurrence   |Veloc|    Full    Full
  Link                 Type          LPS  days hr:min     m/sec    Flow   Depth
  -----------------------------------------------------------------------------
  1                    CONDUIT    553.98     0  02:15      2.82    0.19    0.30
  WS02003060WS02003069 CONDUIT    553.90     0  02:13      1.64    0.22    0.34
  WS02003066WSF200     CONDUIT    537.45     0  02:13      2.85    0.09    0.22
  WS02003067WS02003066 CONDUIT    537.30     0  02:13      1.21    0.17    0.42
  WS02003069WS02003072 CONDUIT    553.12     0  02:14      1.37    0.27    0.39
  WS02003072WS02003073 CONDUIT    552.60     0  02:14      1.43    1.19    0.37
  WS02004401WS02004402 CONDUIT   1171.33     0  00:01      2.51    1.41    0.89
  WS02004402WS02004403 CONDUIT    884.75     0  00:01      2.16    1.27    0.91
  WS02004403WS02004404 CONDUIT    832.43     0  00:01      1.96    0.60    0.96
  WS02004404WS02004405 CONDUIT    776.45     0  00:01      2.26    7.61    0.98
  WS02004405WS02004406 CONDUIT    711.76     0  00:02      2.15    1.40    0.96
  WS02004406WS02004407 CONDUIT    539.82     0  02:11      1.04    0.24    0.63
  WS02004407WS02004409 CONDUIT    539.37     0  02:11      1.95    0.19    0.48
  WS02004409WS02004410 CONDUIT    538.79     0  02:11      1.31    0.70    0.67
  WS02004410WS02004411 CONDUIT    538.18     0  02:12      1.19    0.74    0.69
  WS02004411WS02004412 CONDUIT    537.92     0  02:12      1.08    0.76    0.69
  WS02004412WS02004413 CONDUIT    537.79     0  02:12      1.10    0.36    0.78
  WS02004413WS02003067 CONDUIT    537.10     0  02:12      1.11    0.23    0.59
  WS02006109WS02006110 CONDUIT   1306.78     0  00:00      3.14    2.51    1.00
  WS02006110WS02006113 CONDUIT    578.23     0  03:26      1.40    0.53    1.00
  WS02006111WS02006112 CONDUIT   2307.30     0  00:00      9.18    1.10    0.91
  WS02006112WS02006115 CONDUIT    899.27     0  00:00      1.16    0.53    1.00
  WS02006113WS02006111 CONDUIT   1176.04     0  00:00      2.47    1.41    1.00
  WS02006115WS02006116 CONDUIT   1098.16     0  00:01      1.72    1.41    1.00
  WS02006116WS02004401 CONDUIT   1677.78     0  00:00      2.92    2.31    0.87
  WS02006228WS02006109 CONDUIT    568.80     0  02:00      1.40    2.49    1.00
  WS02006229WS02006228 CONDUIT    567.08     0  02:00      1.24    1.88    1.00
  WS02006230WS02006229 CONDUIT    570.16     0  03:26      1.48   12.69    1.00
  WS02006231WS02006230 CONDUIT    580.40     0  03:15      1.57    8.80    1.00
  WS02006232WS02006231 CONDUIT    588.29     0  03:15      1.53    1.23    1.00
  WS02006234WS02006232 CONDUIT    586.80     0  03:15      1.52    1.19    1.00
  WS02006235WS02006234 CONDUIT    579.80     0  03:15      1.51    6.12    1.00
  WS02006238WS02006235 CONDUIT    431.28     0  03:46      1.67    0.96    1.00
  WS02006239WS02006238 CONDUIT    431.63     0  03:16      1.27    1.38    1.00
  WS02006240WS02006239 CONDUIT    431.26     0  03:16      1.33    1.36    1.00
  WS02006242WS02006240 CONDUIT    428.57     0  03:16      1.17    1.70    1.00
  WS02006243WS02006242 CONDUIT    427.76     0  03:16      1.45    0.91    1.00
  WS02006245WS02006243 CONDUIT    428.71     0  03:15      1.46    1.27    1.00
  WS02006247WS02006245 CONDUIT    429.60     0  03:15      1.42    3.41    1.00
  WS02006248WS02006247 CONDUIT    429.88     0  03:15      1.53    0.94    1.00
  WS02006249WS02006248 CONDUIT    429.18     0  03:15      1.54    2.35    1.00
  WS02006251WS02006249 CONDUIT    824.67     0  00:05      2.86    2.38    1.00
  WS02006252WS02006251 CONDUIT    460.01     0  00:05     21.74    1.69    1.00
  WS02006256WS02006235 CONDUIT    285.43     0  05:25      4.20    3.02    1.00
  WSF200WS02003060     CONDUIT    538.05     0  02:13      2.06    0.12    0.28
  YS02001580YS02001583 CONDUIT     57.98     0  01:25      0.47    0.22    1.00
  YS02001583YS02001586 CONDUIT     87.24     0  01:25      0.38    0.13    1.00
  YS02001586YS02001590 CONDUIT    320.68     0  01:46      1.25    0.56    1.00
  YS02001590YS02001593 CONDUIT    319.85     0  01:46      1.13    2.01    1.00
  YS02001593YS02001596 CONDUIT    318.26     0  02:54      1.73    0.50    1.00
  YS02001596YS02001600 CONDUIT    318.24     0  02:27      1.27    0.62    1.00
  YS02001600YS02001601 CONDUIT    318.33     0  01:46      1.13    0.55    1.00
  YS02001601YS02001602 CONDUIT    502.48     0  01:25      1.78    1.81    1.00
  YS02001602YS02001605 CONDUIT    502.21     0  01:25      1.78   10.63    1.00
  YS02001605YS02001607 CONDUIT    501.47     0  01:25      1.77    2.75    1.00
  YS02001607YS02001610 CONDUIT    500.46     0  01:25      0.68    0.48    1.00
  YS02001610YS02001613 CONDUIT    619.16     0  02:44      0.79    0.71    1.00
  YS02001613YS02001616 CONDUIT    619.28     0  02:45      0.79    0.53    1.00
  YS02001616YS02001619 CONDUIT    619.51     0  02:44      0.79    1.08    1.00
  YS02001619YS02001622 CONDUIT   1054.22     0  02:27      1.50    1.55    1.00
  YS02001622YS02001625 CONDUIT   1053.84     0  02:27      1.34    0.56    1.00
  YS02001625YS02001629 CONDUIT    925.57     0  01:37      1.18    0.44    1.00
  YS02001629YS02163301 CONDUIT   1139.41     0  02:42      1.45    1.40    1.00
  YS02001633YS02163601 CONDUIT   1296.96     0  01:37      1.65    1.36    1.00
  YS02001641YS02001644 CONDUIT   1297.56     0  01:37      1.65    4.19    1.00
  YS02001644YS02001647 CONDUIT   1607.67     0  01:37      2.10    0.94    1.00
  YS02001647YS02001649 CONDUIT   1609.94     0  01:37      2.29    0.85    1.00
  YS02001649YS02001757 CONDUIT   1835.65     0  01:39      2.51    1.11    1.00
  YS02001652YS02001649 CONDUIT   2429.37     0  02:32      3.09    1.20    1.00
  YS02001655YS02001652 CONDUIT   2429.42     0  02:39      3.09    1.18    1.00
  YS02001658YS02001655 CONDUIT   2731.29     0  02:39      3.48    1.16    1.00
  YS02001661YS02001658 CONDUIT   2783.80     0  02:33      3.54    1.09    1.00
  YS02001664YS02001661 CONDUIT   2783.79     0  02:32      3.54    0.87    1.00
  YS02001745YS02001748 CONDUIT   3116.31     0  02:36      3.97    1.20    1.00
  YS02001748YS02001751 CONDUIT   2353.31     0  02:37      3.00    1.19    1.00
  YS02001751YS02001754 CONDUIT   2353.32     0  02:37      3.00    1.13    1.00
  YS02001754YS02001757 CONDUIT   2353.58     0  02:37      3.00    0.95    1.00
  YS02001757CaochengTiaoxuchi CONDUIT   2806.03     0  01:59      3.57    1.21    1.00
  YS02001759YS02001757 CONDUIT   1468.61     0  02:39      1.87    1.04    1.00
  YS02001762YS02001759 CONDUIT    724.36     0  02:39      0.92    0.83    1.00
  YS02001765YS02001762 CONDUIT    723.06     0  02:39      0.92    0.68    1.00
  YS02001767YS02001765 CONDUIT    722.84     0  02:39      0.92    0.91    1.00
  YS02001770YS02001767 CONDUIT    723.39     0  02:39      0.92    2.87    1.00
  YS02001774YS02001770 CONDUIT    852.58     0  02:42      1.09    0.54    1.00
  YS02001779YS02001774 CONDUIT    851.99     0  02:27      1.08    0.43    1.00
  YS02001783YS02001784 CONDUIT   1155.60     0  01:27      2.30    1.59    1.00
  YS02001784YS02001785 CONDUIT   1156.92     0  01:27      2.30    2.69    1.00
  YS02001786YS02001788 CONDUIT   1158.22     0  01:27      2.49    2.23    0.89
  YS02001788YS02001790 CONDUIT   1173.27     0  01:27      2.75    0.86    0.84
  YS02001790YS02001791 CONDUIT   1284.52     0  01:28      3.42    1.40    0.70
  YS02001791YS02001793 CONDUIT   1236.88     0  01:29      6.73    0.53    0.44
  YS02001793JiankangQianchi CONDUIT   1243.86     0  01:36      2.49    0.10    0.65
  YS02001882YS02001884 CONDUIT    136.15     0  01:26      0.19    0.16    1.00
  YS02001884YS02001887 CONDUIT    222.99     0  01:25      0.28    0.30    1.00
  YS02001887YS02001890 CONDUIT    640.60     0  01:26      0.82    1.10    1.00
  YS02001890YS02001895 CONDUIT    645.48     0  01:26      0.82    0.30    1.00
  YS02001895YS02001898 CONDUIT    648.87     0  01:26      0.83    1.13    1.00
  YS02001898YS02001901 CONDUIT    650.84     0  01:26      0.83    0.42    1.00
  YS02001901YS02001904 CONDUIT    651.02     0  01:26      0.83    1.01    1.00
  YS02001904YS02001907 CONDUIT    649.41     0  01:26      0.83    0.23    1.00
  YS02001907YS02006553 CONDUIT    790.69     0  01:44      0.88    0.93    1.00
  YS02001910YS02001907 CONDUIT   1081.33     0  01:28      1.38    0.61    1.00
  YS02001915YS02001910 CONDUIT   1081.41     0  01:28      1.38    0.54    1.00
  YS02001918YS02001915 CONDUIT    836.99     0  01:26      1.08    0.46    1.00
  YS02001920YS02001918 CONDUIT    771.21     0  01:26      0.98    0.75    1.00
  YS02001923YS02001920 CONDUIT    783.79     0  01:26      1.03    0.35    1.00
  YS02001926YS02001923 CONDUIT   1096.90     0  01:27      1.58    1.57    1.00
  YS02001929YS02001926 CONDUIT    903.00     0  01:27      1.27    0.43    1.00
  YS02006553YS02006556 CONDUIT    790.36     0  01:44      1.01    0.68    1.00
  YS02006556YS02006558 CONDUIT    791.56     0  01:44      1.01    0.62    1.00
  YS02006558YS02006561 CONDUIT   1186.98     0  01:26      4.20    2.62    1.00
  YS02006561YS02001783 CONDUIT   1155.64     0  01:27      2.30    0.60    1.00
  YS02163301YS02001633 CONDUIT   1139.15     0  02:28      1.45    1.07    1.00
  YS02163601YS02164001 CONDUIT   1297.53     0  01:37      1.65    1.15    1.00
  YS02164001YS02001641 CONDUIT   1297.18     0  01:37      1.65    1.77    1.00
  CC-R1                PUMP       683.00     0  00:15              1.00
  CC-R2                PUMP       683.00     0  00:10              1.00
  CC-S1                PUMP       200.00     0  00:05              1.00
  CC-S2                PUMP       200.00     0  00:05              1.00
  JK-R1                PUMP      1000.00     0  01:29              1.00
  JK-R2                PUMP      1000.00     0  00:10              1.00
  JK-S                 PUMP       300.00     0  00:15              1.00
  
  
  ***************************
  Flow Classification Summary
  ***************************
  
  -------------------------------------------------------------------------------------
                      Adjusted    ---------- Fraction of Time in Flow Class ---------- 
                       /Actual         Up    Down  Sub   Sup   Up    Down  Norm  Inlet 
  Conduit               Length    Dry  Dry   Dry   Crit  Crit  Crit  Crit  Ltd   Ctrl  
  -------------------------------------------------------------------------------------
  1                       1.00   0.00  0.00  0.00  0.00  1.00  0.00  0.00  0.36  0.00
  WS02003060WS02003069    1.00   0.00  0.00  0.00  0.97  0.03  0.00  0.00  0.63  0.00
  WS02003066WSF200        1.00   0.03  0.00  0.00  0.00  0.97  0.00  0.00  0.87  0.00
  WS02003067WS02003066    1.00   0.02  0.01  0.00  0.97  0.00  0.00  0.00  0.00  0.00
  WS02003069WS02003072    1.00   0.00  0.00  0.00  0.99  0.01  0.00  0.00  0.67  0.00
  WS02003072WS02003073    1.00   0.00  0.00  0.00  0.00  0.00  0.00  1.00  0.00  0.00
  WS02004401WS02004402    1.00   0.00  0.00  0.00  1.00  0.00  0.00  0.00  0.00  0.00
  WS02004402WS02004403    1.00   0.00  0.00  0.00  1.00  0.00  0.00  0.00  0.00  0.00
  WS02004403WS02004404    1.00   0.00  0.00  0.00  1.00  0.00  0.00  0.00  0.00  0.00
  WS02004404WS02004405    1.00   0.00  0.00  0.00  1.00  0.00  0.00  0.00  0.01  0.00
  WS02004405WS02004406    1.00   0.00  0.00  0.00  1.00  0.00  0.00  0.00  0.00  0.00
  WS02004406WS02004407    1.00   0.00  0.00  0.00  1.00  0.00  0.00  0.00  0.00  0.00
  WS02004407WS02004409    1.00   0.00  0.00  0.00  0.99  0.01  0.00  0.00  0.99  0.00
  WS02004409WS02004410    1.00   0.00  0.00  0.00  0.99  0.00  0.00  0.00  0.00  0.00
  WS02004410WS02004411    1.00   0.01  0.00  0.00  0.99  0.00  0.00  0.00  0.00  0.00
  WS02004411WS02004412    1.00   0.01  0.00  0.00  0.99  0.00  0.00  0.00  0.00  0.00
  WS02004412WS02004413    1.00   0.01  0.00  0.00  0.99  0.00  0.00  0.00  0.00  0.00
  WS02004413WS02003067    1.00   0.01  0.01  0.00  0.00  0.00  0.98  0.00  0.00  0.00
  WS02006109WS02006110    1.00   0.00  0.00  0.00  1.00  0.00  0.00  0.00  0.00  0.00
  WS02006110WS02006113    1.00   0.00  0.00  0.00  1.00  0.00  0.00  0.00  0.00  0.00
  WS02006111WS02006112    1.00   0.00  0.00  0.00  1.00  0.00  0.00  0.00  1.00  0.00
  WS02006112WS02006115    1.00   0.00  0.00  0.00  1.00  0.00  0.00  0.00  0.00  0.00
  WS02006113WS02006111    1.00   0.00  0.00  0.00  0.01  0.99  0.00  0.00  0.14  0.00
  WS02006115WS02006116    1.00   0.00  0.00  0.00  1.00  0.00  0.00  0.00  0.00  0.00
  WS02006116WS02004401    1.00   0.00  0.00  0.00  1.00  0.00  0.00  0.00  0.00  0.00
  WS02006228WS02006109    1.00   0.00  0.00  0.00  1.00  0.00  0.00  0.00  0.00  0.00
  WS02006229WS02006228    1.00   0.00  0.00  0.00  1.00  0.00  0.00  0.00  0.00  0.00
  WS02006230WS02006229    1.00   0.00  0.00  0.00  1.00  0.00  0.00  0.00  0.02  0.00
  WS02006231WS02006230    1.00   0.00  0.00  0.00  0.33  0.00  0.67  0.00  0.00  0.00
  WS02006232WS02006231    1.00   0.00  0.00  0.00  0.99  0.00  0.01  0.00  0.00  0.00
  WS02006234WS02006232    1.00   0.00  0.00  0.00  0.99  0.00  0.00  0.00  0.03  0.00
  WS02006235WS02006234    1.00   0.01  0.00  0.00  0.95  0.00  0.04  0.00  0.00  0.00
  WS02006238WS02006235    1.00   0.01  0.00  0.00  0.98  0.00  0.00  0.00  0.01  0.00
  WS02006239WS02006238    1.00   0.01  0.00  0.00  0.98  0.00  0.00  0.00  0.08  0.00
  WS02006240WS02006239    1.00   0.01  0.00  0.00  0.68  0.00  0.00  0.30  0.03  0.00
  WS02006242WS02006240    1.00   0.01  0.00  0.00  0.98  0.00  0.01  0.00  0.00  0.00
  WS02006243WS02006242    1.00   0.01  0.00  0.00  0.98  0.00  0.00  0.01  0.54  0.00
  WS02006245WS02006243    1.00   0.01  0.00  0.00  0.80  0.00  0.00  0.18  0.00  0.00
  WS02006247WS02006245    1.00   0.01  0.00  0.00  0.97  0.00  0.00  0.02  0.00  0.00
  WS02006248WS02006247    1.00   0.01  0.00  0.00  0.98  0.00  0.00  0.01  0.51  0.00
  WS02006249WS02006248    1.00   0.00  0.01  0.00  0.48  0.00  0.51  0.00  0.00  0.00
  WS02006251WS02006249    1.00   0.00  0.00  0.00  0.99  0.01  0.00  0.00  0.50  0.00
  WS02006252WS02006251    1.00   0.01  0.46  0.00  0.10  0.00  0.43  0.00  0.00  0.00
  WS02006256WS02006235    1.00   0.01  0.00  0.00  0.97  0.02  0.00  0.00  0.00  0.00
  WSF200WS02003060        1.00   0.00  0.03  0.00  0.43  0.54  0.00  0.00  0.58  0.00
  YS02001580YS02001583    1.00   0.17  0.50  0.00  0.33  0.00  0.00  0.00  0.59  0.00
  YS02001583YS02001586    1.00   0.43  0.19  0.00  0.38  0.00  0.00  0.00  0.59  0.00
  YS02001586YS02001590    1.00   0.13  0.00  0.00  0.49  0.03  0.00  0.35  0.28  0.00
  YS02001590YS02001593    1.00   0.13  0.00  0.00  0.25  0.00  0.62  0.00  0.00  0.00
  YS02001593YS02001596    1.00   0.13  0.00  0.00  0.26  0.01  0.00  0.60  0.01  0.00
  YS02001596YS02001600    1.00   0.13  0.00  0.00  0.30  0.01  0.00  0.56  0.03  0.00
  YS02001600YS02001601    1.00   0.13  0.01  0.00  0.87  0.00  0.00  0.00  0.54  0.00
  YS02001601YS02001602    1.00   0.13  0.00  0.00  0.87  0.00  0.00  0.00  0.00  0.00
  YS02001602YS02001605    1.00   0.13  0.00  0.00  0.87  0.00  0.00  0.00  0.00  0.00
  YS02001605YS02001607    1.00   0.13  0.00  0.00  0.87  0.00  0.00  0.00  0.00  0.00
  YS02001607YS02001610    1.00   0.13  0.00  0.00  0.87  0.00  0.00  0.00  0.00  0.00
  YS02001610YS02001613    1.00   0.13  0.00  0.00  0.87  0.00  0.00  0.00  0.00  0.00
  YS02001613YS02001616    1.00   0.13  0.00  0.00  0.87  0.00  0.00  0.00  0.00  0.00
  YS02001616YS02001619    1.00   0.13  0.00  0.00  0.87  0.00  0.00  0.00  0.00  0.00
  YS02001619YS02001622    1.00   0.13  0.00  0.00  0.87  0.00  0.00  0.00  0.29  0.00
  YS02001622YS02001625    1.00   0.13  0.00  0.00  0.87  0.01  0.00  0.00  0.01  0.00
  YS02001625YS02001629    1.00   0.13  0.02  0.00  0.30  0.00  0.55  0.00  0.00  0.00
  YS02001629YS02163301    1.00   0.13  0.00  0.00  0.86  0.00  0.00  0.00  0.00  0.00
  YS02001633YS02163601    1.00   0.00  0.01  0.00  0.99  0.00  0.00  0.00  0.13  0.00
  YS02001641YS02001644    1.00   0.00  0.01  0.00  0.99  0.00  0.00  0.00  0.01  0.00
  YS02001644YS02001647    1.00   0.00  0.14  0.00  0.86  0.00  0.00  0.00  0.00  0.00
  YS02001647YS02001649    1.00   0.00  0.14  0.00  0.67  0.19  0.00  0.00  0.54  0.00
  YS02001649YS02001757    1.00   0.00  0.00  0.00  0.81  0.19  0.00  0.00  0.39  0.00
  YS02001652YS02001649    1.00   0.00  0.00  0.00  0.99  0.01  0.00  0.00  0.64  0.00
  YS02001655YS02001652    1.00   0.00  0.00  0.00  0.32  0.00  0.00  0.67  0.03  0.00
  YS02001658YS02001655    1.00   0.00  0.13  0.00  0.80  0.07  0.00  0.00  0.57  0.00
  YS02001661YS02001658    1.00   0.13  0.00  0.00  0.67  0.20  0.00  0.00  0.59  0.00
  YS02001664YS02001661    1.00   0.13  0.00  0.00  0.79  0.08  0.00  0.00  0.75  0.00
  YS02001745YS02001748    1.00   0.00  0.00  0.00  0.24  0.00  0.00  0.76  0.05  0.00
  YS02001748YS02001751    1.00   0.00  0.00  0.00  0.93  0.07  0.00  0.00  0.67  0.00
  YS02001751YS02001754    1.00   0.00  0.00  0.00  0.31  0.00  0.00  0.68  0.04  0.00
  YS02001754YS02001757    1.00   0.00  0.00  0.00  0.99  0.01  0.00  0.00  0.67  0.00
  YS02001757CaochengTiaoxuchi    1.00   0.00  0.00  0.00  0.96  0.04  0.00  0.00  0.64  0.00
  YS02001759YS02001757    1.00   0.00  0.00  0.00  0.99  0.01  0.00  0.00  0.61  0.00
  YS02001762YS02001759    1.00   0.00  0.00  0.00  1.00  0.00  0.00  0.00  0.01  0.00
  YS02001765YS02001762    1.00   0.00  0.00  0.00  1.00  0.00  0.00  0.00  0.62  0.00
  YS02001767YS02001765    1.00   0.00  0.00  0.00  1.00  0.00  0.00  0.00  0.00  0.00
  YS02001770YS02001767    1.00   0.00  0.00  0.00  1.00  0.00  0.00  0.00  0.00  0.00
  YS02001774YS02001770    1.00   0.00  0.13  0.00  0.63  0.00  0.24  0.00  0.01  0.00
  YS02001779YS02001774    1.00   0.00  0.00  0.00  1.00  0.00  0.00  0.00  0.65  0.00
  YS02001783YS02001784    1.00   0.00  0.16  0.00  0.84  0.00  0.00  0.00  0.57  0.00
  YS02001784YS02001785    1.00   0.00  0.00  0.00  1.00  0.00  0.00  0.00  0.15  0.00
  YS02001786YS02001788    1.00   0.00  0.00  0.00  0.78  0.22  0.00  0.00  0.00  0.00
  YS02001788YS02001790    1.00   0.00  0.00  0.00  0.19  0.81  0.00  0.00  0.82  0.00
  YS02001790YS02001791    1.00   0.00  0.00  0.00  0.01  0.99  0.00  0.00  0.18  0.00
  YS02001791YS02001793    1.00   0.00  0.00  0.00  0.00  1.00  0.00  0.00  0.01  0.00
  YS02001793JiankangQianchi    1.00   0.00  0.00  0.00  0.98  0.02  0.00  0.00  0.97  0.00
  YS02001882YS02001884    1.00   0.15  0.01  0.00  0.85  0.00  0.00  0.00  0.00  0.00
  YS02001884YS02001887    1.00   0.06  0.05  0.00  0.89  0.00  0.00  0.00  0.00  0.00
  YS02001887YS02001890    1.00   0.00  0.00  0.00  0.97  0.00  0.03  0.00  0.00  0.00
  YS02001890YS02001895    1.00   0.00  0.15  0.00  0.85  0.00  0.00  0.00  0.00  0.00
  YS02001895YS02001898    1.00   0.16  0.00  0.00  0.83  0.00  0.01  0.00  0.00  0.00
  YS02001898YS02001901    1.00   0.16  0.00  0.00  0.84  0.00  0.00  0.00  0.00  0.00
  YS02001901YS02001904    1.00   0.16  0.00  0.00  0.84  0.00  0.00  0.00  0.00  0.00
  YS02001904YS02001907    1.00   0.00  0.16  0.00  0.84  0.00  0.00  0.00  0.00  0.00
  YS02001907YS02006553    1.00   0.00  0.02  0.00  0.98  0.00  0.00  0.00  0.00  0.00
  YS02001910YS02001907    1.00   0.00  0.00  0.00  0.97  0.00  0.00  0.03  0.12  0.00
  YS02001915YS02001910    1.00   0.00  0.00  0.00  0.97  0.03  0.00  0.00  0.13  0.00
  YS02001918YS02001915    1.00   0.00  0.00  0.00  0.98  0.02  0.00  0.00  0.77  0.00
  YS02001920YS02001918    1.00   0.00  0.00  0.00  1.00  0.00  0.00  0.00  0.01  0.00
  YS02001923YS02001920    1.00   0.00  0.00  0.00  1.00  0.00  0.00  0.00  0.94  0.00
  YS02001926YS02001923    1.00   0.00  0.07  0.00  0.05  0.00  0.88  0.00  0.00  0.00
  YS02001929YS02001926    1.00   0.00  0.13  0.00  0.87  0.00  0.00  0.00  0.83  0.00
  YS02006553YS02006556    1.00   0.01  0.00  0.00  0.99  0.00  0.00  0.00  0.03  0.00
  YS02006556YS02006558    1.00   0.00  0.00  0.00  1.00  0.00  0.00  0.00  0.00  0.00
  YS02006558YS02006561    1.00   0.16  0.00  0.00  0.05  0.79  0.00  0.00  0.20  0.00
  YS02006561YS02001783    1.00   0.16  0.00  0.00  0.07  0.76  0.00  0.00  0.72  0.00
  YS02163301YS02001633    1.00   0.00  0.13  0.00  0.87  0.00  0.00  0.00  0.00  0.00
  YS02163601YS02164001    1.00   0.00  0.08  0.00  0.92  0.00  0.00  0.00  0.00  0.00
  YS02164001YS02001641    1.00   0.01  0.07  0.00  0.92  0.00  0.00  0.00  0.05  0.00
  
  
  *************************
  Conduit Surcharge Summary
  *************************
  
  ----------------------------------------------------------------------------
                                                           Hours        Hours 
                         --------- Hours Full --------   Above Full   Capacity
  Conduit                Both Ends  Upstream  Dnstream   Normal Flow   Limited
  ----------------------------------------------------------------------------
  WS02003072WS02003073        0.01      0.01      0.01      1.17         0.01
  WS02004401WS02004402        0.01      0.01      0.01      0.01         0.01
  WS02004402WS02004403        0.01      0.01      0.01      0.01         0.01
  WS02004403WS02004404        0.01      0.01      0.01      0.01         0.01
  WS02004404WS02004405        0.01      0.01      0.01      3.54         0.01
  WS02004405WS02004406        0.01      0.01      0.01      0.43         0.01
  WS02006109WS02006110        0.58      0.59      2.55      0.69         0.01
  WS02006110WS02006113        0.01      0.01      2.55      0.01         0.01
  WS02006111WS02006112        0.01      0.01      2.73      0.01         0.01
  WS02006112WS02006115        0.01      0.01      0.74      0.01         0.01
  WS02006113WS02006111        0.01      0.01      0.01      0.01         0.01
  WS02006115WS02006116        0.01      0.01      0.01      0.01         0.01
  WS02006116WS02004401        0.01      0.01      0.01      0.01         0.01
  WS02006228WS02006109        2.53      2.55      2.53      2.96         2.53
  WS02006229WS02006228        2.53      2.53      2.53      2.66         2.52
  WS02006230WS02006229        2.58      2.64      2.58      3.70         2.58
  WS02006231WS02006230        0.58      0.58      0.78      3.50         0.01
  WS02006232WS02006231        0.72      0.72      2.57      0.82         0.01
  WS02006234WS02006232        2.48      2.48      2.57      0.79         0.78
  WS02006235WS02006234        1.23      1.23      2.49      3.34         0.02
  WS02006238WS02006235        2.51      2.51      2.56      0.01         0.01
  WS02006239WS02006238        2.54      2.55      2.54      2.45         2.21
  WS02006240WS02006239        2.52      2.54      2.52      2.45         2.10
  WS02006242WS02006240        2.53      2.53      2.56      2.59         0.01
  WS02006243WS02006242        2.43      2.43      2.55      0.01         0.05
  WS02006245WS02006243        2.42      2.42      2.43      1.86         1.87
  WS02006247WS02006245        2.42      2.42      2.42      3.31         2.40
  WS02006248WS02006247        2.40      2.41      2.42      0.01         0.05
  WS02006249WS02006248        2.40      2.40      2.40      3.28         0.01
  WS02006251WS02006249        2.40      2.41      2.40      2.52         2.30
  WS02006252WS02006251        2.58      2.58      2.61      2.59         0.01
  WS02006256WS02006235        3.35      3.39      7.13      1.14         0.01
  YS02001580YS02001583        1.69      1.69      1.73      0.01         0.01
  YS02001583YS02001586        1.70      1.70      1.81      0.01         0.01
  YS02001586YS02001590        1.82      1.82      1.89      0.01         0.01
  YS02001590YS02001593        1.89      1.89      1.91      1.89         0.01
  YS02001593YS02001596        1.90      1.90      2.00      0.01         0.01
  YS02001596YS02001600        2.04      2.04      2.12      0.01         0.01
  YS02001600YS02001601        2.17      2.17      2.34      0.01         0.01
  YS02001601YS02001602        2.29      2.29      2.36      2.09         0.01
  YS02001602YS02001605        2.26      2.26      2.29      2.81         0.01
  YS02001605YS02001607        2.23      2.26      2.25      2.22         2.14
  YS02001607YS02001610        1.90      1.90      1.93      0.01         0.01
  YS02001610YS02001613        1.90      1.90      1.93      0.01         0.01
  YS02001613YS02001616        1.86      1.86      1.90      0.01         0.01
  YS02001616YS02001619        1.84      1.84      1.86      0.60         0.56
  YS02001619YS02001622        1.84      1.84      1.85      1.81         1.72
  YS02001622YS02001625        1.85      1.85      2.04      0.01         0.01
  YS02001625YS02001629        1.75      1.75      2.04      0.01         0.01
  YS02001629YS02163301        2.05      2.05      2.07      0.69         0.26
  YS02001633YS02163601        2.10      2.10      2.15      0.40         0.42
  YS02001641YS02001644        2.04      2.07      2.04      2.38         1.95
  YS02001644YS02001647        1.71      1.71      2.04      0.01         0.01
  YS02001647YS02001649        1.71      1.71      1.84      0.01         0.01
  YS02001649YS02001757        1.84      1.84      1.92      0.37         0.19
  YS02001652YS02001649        1.68      1.68      1.84      0.26         0.26
  YS02001655YS02001652        1.43      1.43      1.65      0.25         0.25
  YS02001658YS02001655        1.13      1.13      1.44      0.21         0.21
  YS02001661YS02001658        0.60      0.60      1.14      0.19         0.19
  YS02001664YS02001661        0.39      0.39      0.72      0.01         0.01
  YS02001745YS02001748        0.40      0.40      1.03      0.05         0.05
  YS02001748YS02001751        1.09      1.09      1.32      0.11         0.11
  YS02001751YS02001754        1.32      1.32      1.57      0.10         0.10
  YS02001754YS02001757        1.62      1.62      1.92      0.01         0.01
  YS02001757CaochengTiaoxuchi        1.92      1.92      2.39      1.13         1.01
  YS02001759YS02001757        1.83      1.83      1.92      0.11         0.04
  YS02001762YS02001759        1.80      1.80      1.83      0.01         0.02
  YS02001765YS02001762        1.76      1.76      1.80      0.01         0.01
  YS02001767YS02001765        1.73      1.73      1.76      0.01         0.01
  YS02001770YS02001767        1.73      1.73      1.73      1.52         0.86
  YS02001774YS02001770        1.71      1.71      1.78      0.01         0.01
  YS02001779YS02001774        1.56      1.56      1.78      0.01         0.01
  YS02001783YS02001784        0.43      0.45      0.43      0.58         0.43
  YS02001784YS02001785        0.33      0.43      0.33      0.81         0.33
  YS02001786YS02001788        0.01      0.33      0.01      0.67         0.01
  YS02001790YS02001791        0.01      0.01      0.01      0.42         0.01
  YS02001793JiankangQianchi        0.01      0.01      6.72      0.01         0.01
  YS02001882YS02001884        0.40      0.40      0.41      0.01         0.01
  YS02001884YS02001887        0.43      0.43      0.45      0.01         0.01
  YS02001887YS02001890        0.46      0.46      0.47      0.04         0.01
  YS02001890YS02001895        0.39      0.39      0.48      0.01         0.01
  YS02001895YS02001898        0.38      0.38      0.39      0.01         0.01
  YS02001898YS02001901        0.39      0.39      0.43      0.01         0.01
  YS02001901YS02001904        0.42      0.42      0.43      0.01         0.01
  YS02001904YS02001907        0.42      0.42      0.65      0.01         0.01
  YS02001907YS02006553        0.82      0.82      0.89      0.01         0.01
  YS02001910YS02001907        0.48      0.48      0.62      0.01         0.01
  YS02001915YS02001910        0.40      0.40      0.48      0.01         0.01
  YS02001918YS02001915        0.31      0.31      0.40      0.01         0.01
  YS02001920YS02001918        0.31      0.31      0.33      0.01         0.01
  YS02001923YS02001920        0.27      0.27      0.33      0.01         0.01
  YS02001926YS02001923        0.01      0.02      0.02      0.01         0.01
  YS02001929YS02001926        0.01      0.01      0.02      0.01         0.01
  YS02006553YS02006556        0.55      0.55      0.64      0.01         0.01
  YS02006556YS02006558        0.60      0.60      0.66      0.01         0.01
  YS02006558YS02006561        0.35      0.54      0.35      0.75         0.35
  YS02006561YS02001783        0.28      0.28      0.45      0.01         0.01
  YS02163301YS02001633        2.07      2.07      2.12      0.34         0.01
  YS02163601YS02164001        2.06      2.06      2.15      0.27         0.01
  YS02164001YS02001641        2.06      2.06      2.07      1.14         1.07
  
  
  ***************
  Pumping Summary
  ***************
  
  ---------------------------------------------------------------------------------------------------------
                                                  Min       Avg       Max     Total     Power    % Time Off
                        Percent   Number of      Flow      Flow      Flow    Volume     Usage    Pump Curve
  Pump                 Utilized   Start-Ups       LPS       LPS       LPS  10^6 ltr     Kw-hr    Low   High
  ---------------------------------------------------------------------------------------------------------
  CC-R1                   37.50          25      0.00    683.00    683.00     7.377    141.52    0.0   56.5
  CC-R2                   34.75          19      0.00    683.00    683.00     6.836    132.88    0.0   50.4
  CC-S1                   39.19          23      0.00    200.00    200.00     2.258     10.86    0.0   30.3
  CC-S2                   35.68          22      0.00    200.00    200.00     2.055      9.62    0.0   33.3
  JK-R1                    6.72          16      0.00   1000.00   1000.00     1.936     19.16    0.0    0.0
  JK-R2                    2.45          14      0.00   1000.00   1000.00     0.707      5.75    0.0    0.0
  JK-S                    13.84          38      0.00    300.00    300.00     1.196     20.58    0.0    0.0
  

  Analysis begun on:  Fri Aug  4 07:05:01 2023
  Analysis ended on:  Fri Aug  4 07:05:05 2023
  Total elapsed time: 00:00:04