
  OWA STORM WATER MANAGEMENT MODEL - VERSION v5.1.14 (OWA 2022-07-31)
  --------------------------------------------------------------

  WARNING 04: minimum elevation drop used for Conduit WS02004404WS02004405
  WARNING 03: negative offset ignored for Link YS02001904YS02001907
  
  *********************************************************
  NOTE: The summary statistics displayed in this report are
  based on results found at every computational time step,  
  not just on results from each reporting time step.
  *********************************************************
  
  ****************
  Analysis Options
  ****************
  Flow Units ............... LPS
  Process Models:
    Rainfall/Runoff ........ YES
    RDII ................... NO
    Snowmelt ............... NO
    Groundwater ............ NO
    Flow Routing ........... YES
    Ponding Allowed ........ NO
    Water Quality .......... NO
  Infiltration Method ...... HORTON
  Flow Routing Method ...... DYNWAVE
  Surcharge Method ......... EXTRAN
  Starting Date ............ 08/28/2015 08:00:00
  Ending Date .............. 08/28/2015 16:00:00
  Antecedent Dry Days ...... 8.0
  Report Time Step ......... 00:01:00
  Wet Time Step ............ 00:01:00
  Dry Time Step ............ 00:01:00
  Routing Time Step ........ 30.00 sec
  Variable Time Step ....... YES
  Maximum Trials ........... 8
  Number of Threads ........ 1
  Head Tolerance ........... 0.001500 m
  
  
  **************************        Volume         Depth
  Runoff Quantity Continuity     hectare-m            mm
  **************************     ---------       -------
  Initial LID Storage ......         0.049         1.488
  Total Precipitation ......         2.876        86.717
  Evaporation Loss .........         0.000         0.000
  Infiltration Loss ........         0.078         2.342
  Surface Runoff ...........         2.161        65.159
  Final Storage ............         0.688        20.732
  Continuity Error (%) .....        -0.033
  
  
  **************************        Volume        Volume
  Flow Routing Continuity        hectare-m      10^6 ltr
  **************************     ---------     ---------
  Dry Weather Inflow .......         0.000         0.000
  Wet Weather Inflow .......         2.161        21.608
  Groundwater Inflow .......         0.000         0.000
  RDII Inflow ..............         0.000         0.000
  External Inflow ..........         0.083         0.834
  External Outflow .........         1.672        16.716
  Flooding Loss ............         0.674         6.735
  Evaporation Loss .........         0.000         0.000
  Exfiltration Loss ........         0.000         0.000
  Initial Stored Volume ....         0.243         2.431
  Final Stored Volume ......         0.178         1.779
  Continuity Error (%) .....        -1.439
  
  
  *************************
  Highest Continuity Errors
  *************************
  Node YS02001583 (-15.22%)
  Node YS02001884 (3.59%)
  Node WS02006256 (-1.91%)
  Node WS02006110 (-1.36%)
  Node WS02006111 (-1.05%)
  
  
  ***************************
  Time-Step Critical Elements
  ***************************
  Link WS02006238WS02006235 (21.60%)
  Link WS02004404WS02004405 (21.39%)
  Link WS02006252WS02006251 (19.30%)
  Link YS02001791YS02001793 (10.51%)
  Link WS02003066WSF200 (7.39%)
  
  
  ********************************
  Highest Flow Instability Indexes
  ********************************
  Link WS02006113WS02006111 (34)
  Link WS02006238WS02006235 (21)
  Link WS02004404WS02004405 (20)
  Link WS02006256WS02006235 (20)
  Link WS02006111WS02006112 (19)
  
  
  *************************
  Routing Time Step Summary
  *************************
  Minimum Time Step           :     0.00 sec
  Average Time Step           :     2.75 sec
  Maximum Time Step           :    30.00 sec
  Percent in Steady State     :    -0.00
  Average Iterations per Step :     3.53
  Percent Not Converging      :    16.26
  
  
  ***************************
  Subcatchment Runoff Summary
  ***************************
  
  ------------------------------------------------------------------------------------------------------------------------------
                            Total      Total      Total      Total     Imperv       Perv      Total       Total     Peak  Runoff
                           Precip      Runon       Evap      Infil     Runoff     Runoff     Runoff      Runoff   Runoff   Coeff
  Subcatchment                 mm         mm         mm         mm         mm         mm         mm    10^6 ltr      LPS
  ------------------------------------------------------------------------------------------------------------------------------
  sub60                     81.29       0.00       0.00       1.40      54.29       6.13      60.42        0.79   541.27   0.743
  sub61                     81.29       0.00       0.00       2.15      54.24       9.15      63.39        1.16   784.59   0.780
  sub62                     81.29       0.00       0.00       0.95      57.83       4.16      61.99        1.70  1075.76   0.763
  sub63                     81.29       0.00       0.00       3.91      46.46      15.39      61.85        1.40   871.53   0.761
  sub64                     81.29       0.00       0.00       1.88      52.91       7.62      60.52        1.45   866.68   0.745
  sub65                     81.29       0.00       0.00       1.73      57.11       6.96      64.06        1.76  1011.09   0.788
  sub66                     81.29       0.00       0.00       4.52      44.94      14.17      59.11        2.76  1287.93   0.727
  sub67                    102.21       0.00       0.00       0.97      74.80       5.62      80.42        1.50  1053.09   0.787
  sub68                    102.21       0.00       0.00       1.71      66.06       9.20      75.26        2.07  1399.60   0.736
  sub69                     81.29       0.00       0.00       1.50      54.68       8.16      62.84        2.33  1313.17   0.773
  sub70                     81.29       0.00       0.00       4.98      43.82      17.64      61.46        1.78   742.66   0.756
  sub71                    102.21       0.00       0.00       0.91      66.29       4.94      71.23        1.86  1181.86   0.697
  sub72                    102.21       0.00       0.00       0.87      71.63       4.60      76.23        1.05   621.68   0.746
  

  ***********************
  LID Performance Summary
  ***********************

  --------------------------------------------------------------------------------------------------------------------
                                         Total      Evap     Infil   Surface    Drain    Initial     Final  Continuity
                                        Inflow      Loss      Loss   Outflow   Outflow   Storage   Storage       Error
  Subcatchment      LID Control             mm        mm        mm        mm        mm        mm        mm           %
  --------------------------------------------------------------------------------------------------------------------
  sub60             GreenRoof            81.29      0.00      0.00      0.00      0.00      7.05     88.39       -0.05
  sub61             GreenRoof            81.29      0.00      0.00      0.00      0.00      7.05     88.39       -0.05
  sub62             GreenRoof            81.29      0.00      0.00      0.00      0.00      7.05     88.39       -0.05
  sub63             GreenRoof            81.29      0.00      0.00      0.00      0.00      7.05     88.39       -0.05
  sub64             GreenRoof            81.29      0.00      0.00      0.00      0.00      7.05     88.39       -0.05
  sub65             GreenRoof            81.29      0.00      0.00      0.00      0.00      7.05     88.39       -0.05
  sub66             GreenRoof            81.29      0.00      0.00      0.00      0.00      7.05     88.39       -0.05
  sub67             GreenRoof           102.21      0.00      0.00      0.00      0.00      7.05    109.32       -0.05
  sub68             GreenRoof           102.21      0.00      0.00      0.00      0.00      7.05    109.32       -0.05
  sub69             GreenRoof            81.29      0.00      0.00      0.00      0.00      7.05     88.39       -0.05
  sub70             GreenRoof            81.29      0.00      0.00      0.00      0.00      7.05     88.39       -0.05
  sub71             GreenRoof           102.21      0.00      0.00      0.00      0.00      7.05    109.32       -0.05
  sub72             GreenRoof           102.21      0.00      0.00      0.00      0.00      7.05    109.32       -0.05
  
  ******************
  Node Depth Summary
  ******************
  
  ---------------------------------------------------------------------------------
                                 Average  Maximum  Maximum  Time of Max    Reported
                                   Depth    Depth      HGL   Occurrence   Max Depth
  Node                 Type       Meters   Meters   Meters  days hr:min      Meters
  ---------------------------------------------------------------------------------
  WS02003060           JUNCTION     0.21     0.38     5.31     0  02:53        0.38
  WS02003066           JUNCTION     0.18     0.30     5.85     0  02:53        0.30
  WS02003067           JUNCTION     0.47     0.70     6.02     0  02:52        0.70
  WS02003069           JUNCTION     0.23     0.43     5.01     0  02:54        0.43
  WS02003072           JUNCTION     0.29     0.50     4.87     0  02:54        0.50
  WS02003073           JUNCTION     0.16     0.30     4.36     0  02:55        0.30
  WS02004401           JUNCTION     0.57     0.87     6.87     0  02:50        0.87
  WS02004402           JUNCTION     0.61     0.90     6.86     0  02:50        0.90
  WS02004403           JUNCTION     0.63     0.92     6.85     0  02:49        0.91
  WS02004404           JUNCTION     0.71     1.01     6.86     0  02:50        1.00
  WS02004405           JUNCTION     0.70     0.96     6.81     0  02:50        0.96
  WS02004406           JUNCTION     0.71     0.96     6.79     0  02:50        0.96
  WS02004407           JUNCTION     0.16     0.30     6.61     0  02:51        0.30
  WS02004409           JUNCTION     0.35     0.67     6.44     0  02:51        0.67
  WS02004410           JUNCTION     0.38     0.68     6.40     0  02:51        0.68
  WS02004411           JUNCTION     0.40     0.69     6.37     0  02:52        0.69
  WS02004412           JUNCTION     0.43     0.70     6.34     0  02:52        0.70
  WS02004413           JUNCTION     0.59     0.86     6.33     0  02:52        0.86
  WS02006109           JUNCTION     0.61     1.24     7.85     0  00:00        1.15
  WS02006110           JUNCTION     0.62     1.45     8.04     0  00:00        1.06
  WS02006111           JUNCTION     0.16     1.67     8.37     0  00:00        0.56
  WS02006112           JUNCTION     0.72     2.68     8.56     0  00:00        1.29
  WS02006113           JUNCTION     0.24     1.50     8.40     0  00:00        0.45
  WS02006115           JUNCTION     0.45     1.69     7.83     0  00:00        0.86
  WS02006116           JUNCTION     0.54     1.11     7.15     0  00:00        0.85
  WS02006228           JUNCTION     0.60     1.64     8.29     0  00:00        1.18
  WS02006229           JUNCTION     0.57     1.31     8.00     0  00:00        1.14
  WS02006230           JUNCTION     0.57     1.36     8.10     0  02:41        1.14
  WS02006231           JUNCTION     0.38     1.05     8.17     0  02:41        0.90
  WS02006232           JUNCTION     0.51     1.64     8.68     0  03:35        1.12
  WS02006234           JUNCTION     0.44     1.26     8.42     0  02:24        1.26
  WS02006235           JUNCTION     0.48     1.36     8.52     0  02:24        1.26
  WS02006238           JUNCTION     0.50     1.39     8.54     0  02:24        1.31
  WS02006239           JUNCTION     0.47     1.38     8.59     0  02:41        1.30
  WS02006240           JUNCTION     0.44     1.50     8.79     0  03:35        1.29
  WS02006242           JUNCTION     0.50     1.55     8.82     0  03:35        1.52
  WS02006243           JUNCTION     0.43     1.48     8.90     0  02:04        1.48
  WS02006245           JUNCTION     0.43     1.54     9.03     0  02:04        1.54
  WS02006247           JUNCTION     0.45     1.46     8.96     0  02:04        1.46
  WS02006248           JUNCTION     0.42     1.10     8.69     0  01:55        1.10
  WS02006249           JUNCTION     0.45     1.09     8.69     0  01:50        1.09
  WS02006251           JUNCTION     0.45     1.37     9.04     0  02:24        1.28
  WS02006252           JUNCTION     0.31     1.50     9.74     0  00:10        0.83
  WS02006256           JUNCTION     1.02     2.35     9.28     0  00:05        2.35
  WSF200               JUNCTION     0.15     0.29     5.52     0  02:53        0.29
  YS02001580           JUNCTION     0.15     1.05     9.59     0  01:34        0.77
  YS02001583           JUNCTION     0.18     1.14     9.64     0  01:34        0.82
  YS02001586           JUNCTION     0.28     1.13     9.30     0  01:34        1.13
  YS02001590           JUNCTION     0.39     1.38     9.24     0  01:39        1.38
  YS02001593           JUNCTION     0.32     1.30     9.16     0  01:34        1.28
  YS02001596           JUNCTION     0.43     1.75     9.17     0  01:33        1.75
  YS02001600           JUNCTION     0.52     1.87     9.00     0  01:33        1.87
  YS02001601           JUNCTION     0.70     2.06     8.90     0  01:33        2.06
  YS02001602           JUNCTION     0.60     1.87     8.77     0  01:34        1.87
  YS02001605           JUNCTION     0.56     1.78     8.68     0  01:34        1.78
  YS02001607           JUNCTION     0.54     1.65     8.50     0  01:53        1.65
  YS02001610           JUNCTION     0.58     1.68     8.48     0  01:34        1.68
  YS02001613           JUNCTION     0.54     1.70     8.54     0  01:34        1.67
  YS02001616           JUNCTION     0.47     1.61     8.52     0  01:34        1.61
  YS02001619           JUNCTION     0.45     1.61     8.54     0  01:34        1.61
  YS02001622           JUNCTION     0.44     1.62     8.52     0  01:34        1.58
  YS02001625           JUNCTION     0.68     1.78     8.38     0  01:34        1.78
  YS02001629           JUNCTION     0.58     1.85     8.40     0  01:34        1.85
  YS02001633           JUNCTION     0.65     2.08     8.53     0  01:36        2.08
  YS02001641           JUNCTION     0.62     2.05     8.48     0  01:36        2.05
  YS02001644           JUNCTION     0.61     1.92     8.35     0  01:36        1.92
  YS02001647           JUNCTION     0.41     1.84     8.45     0  01:36        1.75
  YS02001649           JUNCTION     0.46     2.05     8.44     0  01:36        1.99
  YS02001652           JUNCTION     0.35     2.16     8.76     0  01:35        1.87
  YS02001655           JUNCTION     0.27     2.20     9.05     0  01:36        1.71
  YS02001658           JUNCTION     0.20     2.30     9.44     0  01:36        1.52
  YS02001661           JUNCTION     0.19     2.46     9.86     0  01:37        1.36
  YS02001664           JUNCTION     0.08     0.98     8.90     0  01:37        0.95
  YS02001745           JUNCTION     0.09     2.35     9.87     0  01:37        0.72
  YS02001748           JUNCTION     0.18     2.27     9.35     0  01:37        1.16
  YS02001751           JUNCTION     0.23     2.20     9.08     0  01:37        1.35
  YS02001754           JUNCTION     0.31     2.20     8.81     0  01:36        1.62
  YS02001757           JUNCTION     0.48     2.21     8.47     0  01:37        1.97
  YS02001759           JUNCTION     0.42     2.21     8.57     0  01:37        1.97
  YS02001762           JUNCTION     0.41     2.15     8.55     0  01:37        2.00
  YS02001765           JUNCTION     0.39     2.10     8.55     0  01:37        1.98
  YS02001767           JUNCTION     0.39     2.03     8.52     0  01:36        2.00
  YS02001770           JUNCTION     0.40     1.95     8.44     0  01:36        1.95
  YS02001774           JUNCTION     0.46     2.05     8.47     0  01:39        2.05
  YS02001779           JUNCTION     0.30     1.68     8.37     0  01:36        1.68
  YS02001783           JUNCTION     0.31     1.25     7.39     0  02:22        1.24
  YS02001784           JUNCTION     0.30     1.13     7.20     0  02:24        1.12
  YS02001786           JUNCTION     0.25     0.88     6.91     0  02:22        0.88
  YS02001788           JUNCTION     0.18     0.62     6.60     0  02:22        0.62
  YS02001790           JUNCTION     0.22     0.73     6.37     0  02:21        0.72
  YS02001791           JUNCTION     0.13     0.44     5.91     0  02:21        0.44
  YS02001793           JUNCTION     0.07     0.30     5.14     0  02:24        0.28
  YS02001882           JUNCTION     0.38     1.69     8.40     0  02:23        1.66
  YS02001884           JUNCTION     0.46     1.78     8.40     0  02:23        1.77
  YS02001887           JUNCTION     0.53     1.86     8.40     0  02:23        1.84
  YS02001890           JUNCTION     0.56     1.81     8.32     0  02:13        1.81
  YS02001895           JUNCTION     0.35     1.57     8.31     0  02:24        1.56
  YS02001898           JUNCTION     0.36     1.56     8.30     0  02:26        1.56
  YS02001901           JUNCTION     0.46     1.67     8.28     0  02:30        1.67
  YS02001904           JUNCTION     0.44     1.64     8.27     0  02:24        1.64
  YS02001907           JUNCTION     0.73     1.96     8.25     0  02:13        1.96
  YS02001910           JUNCTION     0.55     1.98     8.49     0  02:25        1.98
  YS02001915           JUNCTION     0.38     1.94     8.66     0  02:25        1.94
  YS02001918           JUNCTION     0.22     1.63     8.70     0  02:24        1.63
  YS02001920           JUNCTION     0.28     1.71     8.72     0  02:24        1.71
  YS02001923           JUNCTION     0.18     1.48     8.74     0  02:24        1.47
  YS02001926           JUNCTION     0.20     1.32     8.77     0  02:24        1.31
  YS02001929           JUNCTION     0.13     1.17     8.86     0  02:13        1.08
  YS02006553           JUNCTION     0.73     1.98     8.27     0  02:23        1.98
  YS02006556           JUNCTION     0.70     1.98     8.29     0  02:23        1.96
  YS02006558           JUNCTION     0.74     2.04     8.30     0  02:23        2.00
  YS02006561           JUNCTION     0.19     0.93     7.59     0  02:23        0.91
  YS02163301           JUNCTION     0.60     1.98     8.50     0  01:36        1.98
  YS02163601           JUNCTION     0.68     2.08     8.48     0  01:36        2.08
  YS02164001           JUNCTION     0.61     2.08     8.53     0  01:36        2.08
  CC-1                 OUTFALL      0.00     0.00     0.00     0  00:00        0.00
  CC-2                 OUTFALL      0.00     0.00     0.00     0  00:00        0.00
  JK-1                 OUTFALL      0.00     0.00     0.00     0  00:00        0.00
  JK-2                 OUTFALL      0.00     0.00     0.00     0  00:00        0.00
  WSC                  OUTFALL      0.16     0.30     0.97     0  02:55        0.30
  CC-storage           STORAGE      0.83     1.55     7.05     0  02:13        1.55
  JK-storage           STORAGE      1.69     4.25     5.05     0  02:24        4.17
  
  
  *******************
  Node Inflow Summary
  *******************
  
  -------------------------------------------------------------------------------------------------
                                  Maximum  Maximum                  Lateral       Total        Flow
                                  Lateral    Total  Time of Max      Inflow      Inflow     Balance
                                   Inflow   Inflow   Occurrence      Volume      Volume       Error
  Node                 Type           LPS      LPS  days hr:min    10^6 ltr    10^6 ltr     Percent
  -------------------------------------------------------------------------------------------------
  WS02003060           JUNCTION     16.53   551.09     0  02:53       0.476        4.55       0.046
  WS02003066           JUNCTION      0.00   534.38     0  02:53           0        4.07       0.032
  WS02003067           JUNCTION      0.00   534.30     0  02:52           0        4.07       0.098
  WS02003069           JUNCTION      0.32   551.34     0  02:53     0.00922        4.55       0.077
  WS02003072           JUNCTION      0.00   550.93     0  02:54           0        4.55       0.140
  WS02003073           JUNCTION      1.82   552.41     0  02:54      0.0524         4.6       0.110
  WS02004401           JUNCTION      0.00  1786.04     0  00:00           0        4.18       0.255
  WS02004402           JUNCTION      0.00  1248.69     0  00:01           0        4.17       0.257
  WS02004403           JUNCTION      0.00   929.44     0  00:01           0        4.16       0.252
  WS02004404           JUNCTION      0.00   877.02     0  00:01           0        4.15       0.204
  WS02004405           JUNCTION      0.00   827.31     0  00:01           0        4.14       0.266
  WS02004406           JUNCTION      0.00   768.45     0  00:02           0        4.13       0.512
  WS02004407           JUNCTION      0.00   536.19     0  02:50           0        4.11       0.020
  WS02004409           JUNCTION      0.00   535.95     0  02:51           0        4.11       0.057
  WS02004410           JUNCTION      0.00   535.63     0  02:51           0         4.1       0.100
  WS02004411           JUNCTION      0.00   535.19     0  02:52           0         4.1       0.129
  WS02004412           JUNCTION      0.00   534.84     0  02:52           0        4.09       0.171
  WS02004413           JUNCTION      0.00   534.54     0  02:52           0        4.09       0.317
  WS02006109           JUNCTION      0.00  1446.81     0  00:00           0        4.07      -0.208
  WS02006110           JUNCTION      0.00   554.20     0  02:41           0        4.05      -1.338
  WS02006111           JUNCTION      0.00  1180.41     0  00:00           0        4.11      -1.038
  WS02006112           JUNCTION      0.00  2307.30     0  00:00           0        4.15       0.000
  WS02006113           JUNCTION      0.00   568.79     0  02:42           0        4.07      -0.933
  WS02006115           JUNCTION      0.00   953.54     0  00:00           0        4.12      -0.872
  WS02006116           JUNCTION      0.00  1264.47     0  00:00           0        4.16      -0.577
  WS02006228           JUNCTION      0.00   869.18     0  00:00           0        4.06      -0.057
  WS02006229           JUNCTION      0.00   552.96     0  02:41           0        4.04      -0.044
  WS02006230           JUNCTION     10.28   706.67     0  00:00       0.296        4.03      -0.015
  WS02006231           JUNCTION      0.00   576.05     0  02:24           0        3.72       0.040
  WS02006232           JUNCTION      0.00   575.30     0  02:24           0        3.72       0.142
  WS02006234           JUNCTION      0.00   570.34     0  02:24           0        3.71      -0.183
  WS02006235           JUNCTION      0.00   562.71     0  02:24           0        3.78       0.140
  WS02006238           JUNCTION      0.00   423.16     0  02:30           0        2.99      -0.204
  WS02006239           JUNCTION      0.00   421.77     0  02:10           0        2.94      -0.212
  WS02006240           JUNCTION      0.00   419.67     0  02:10           0        2.91       0.008
  WS02006242           JUNCTION      0.00   419.79     0  02:10           0         2.9       0.048
  WS02006243           JUNCTION      0.00   419.10     0  02:10           0        2.88      -0.352
  WS02006245           JUNCTION      0.00   419.35     0  02:30           0        2.89       0.466
  WS02006247           JUNCTION      0.00   419.28     0  02:30           0        2.89      -0.032
  WS02006248           JUNCTION      0.00   420.83     0  02:30           0        2.89      -0.051
  WS02006249           JUNCTION      0.00   473.74     0  03:30           0         3.1       0.522
  WS02006251           JUNCTION      0.00   406.13     0  02:24           0         3.1       0.054
  WS02006252           JUNCTION      0.00   400.00     0  00:10           0        3.08      -0.472
  WS02006256           JUNCTION      0.00   300.00     0  00:05           0        1.16      -1.877
  WSF200               JUNCTION      0.00   534.43     0  02:53           0        4.07       0.008
  YS02001580           JUNCTION      0.00   200.16     0  01:34           0     0.00415      -5.243
  YS02001583           JUNCTION      0.00   280.42     0  01:34           0      0.0146     -13.210
  YS02001586           JUNCTION    742.66   742.66     0  01:42        1.78        1.79       0.099
  YS02001590           JUNCTION      0.00   318.25     0  02:06           0        1.36      -0.035
  YS02001593           JUNCTION      0.00   318.14     0  02:05           0        1.36      -0.008
  YS02001596           JUNCTION      0.00   318.04     0  01:59           0        1.36       0.001
  YS02001600           JUNCTION      0.00   318.01     0  01:39           0        1.36       0.009
  YS02001601           JUNCTION   1313.17  1630.81     0  01:40        2.33        3.68       0.027
  YS02001602           JUNCTION      0.00   578.83     0  01:34           0        2.28       0.016
  YS02001605           JUNCTION      0.00   578.46     0  01:34           0        2.16       0.015
  YS02001607           JUNCTION      0.00   577.62     0  01:34           0        2.16       0.076
  YS02001610           JUNCTION      0.00   701.62     0  01:41           0        2.39       0.083
  YS02001613           JUNCTION      0.00   504.65     0  01:34           0         1.9       0.081
  YS02001616           JUNCTION      0.00   472.82     0  02:15           0         1.9      -0.009
  YS02001619           JUNCTION   1287.93  1287.93     0  01:41        2.76        4.42      -0.006
  YS02001622           JUNCTION      0.00   954.85     0  01:37           0        4.19      -0.014
  YS02001625           JUNCTION      0.00  1303.63     0  01:42           0        4.35       0.203
  YS02001629           JUNCTION      0.00   861.33     0  01:35           0        3.48      -0.013
  YS02001633           JUNCTION   1011.09  1427.62     0  01:35        1.76        5.02       0.062
  YS02001641           JUNCTION      0.00  1426.63     0  01:35           0        4.81       0.055
  YS02001644           JUNCTION    866.68  1964.71     0  01:35        1.45        6.25       0.043
  YS02001647           JUNCTION      0.00  1965.52     0  01:35           0        5.97       0.005
  YS02001649           JUNCTION      0.00  2258.73     0  01:36           0        7.38      -0.004
  YS02001652           JUNCTION      0.00  1061.25     0  01:38           0         1.4      -0.143
  YS02001655           JUNCTION      0.00  1060.74     0  01:38           0         1.4      -0.041
  YS02001658           JUNCTION      0.00  1060.54     0  01:38           0         1.4      -0.050
  YS02001661           JUNCTION      0.00  1059.43     0  01:38           0         1.4       0.011
  YS02001664           JUNCTION    871.53   871.53     0  01:39         1.4         1.4      -0.013
  YS02001745           JUNCTION    541.27   759.52     0  01:37       0.793       0.795       0.190
  YS02001748           JUNCTION      0.00   945.04     0  01:36           0       0.799      -0.428
  YS02001751           JUNCTION      0.00   649.75     0  01:37           0       0.807       0.052
  YS02001754           JUNCTION      0.00   649.26     0  01:37           0       0.813      -0.222
  YS02001757           JUNCTION      0.00  3594.60     0  01:37           0        10.9       0.049
  YS02001759           JUNCTION    784.59  1523.06     0  01:37        1.16        2.72      -0.024
  YS02001762           JUNCTION      0.00   797.97     0  01:44           0        1.56      -0.011
  YS02001765           JUNCTION      0.00   798.24     0  01:44           0        1.56       0.002
  YS02001767           JUNCTION      0.00   798.58     0  01:44           0        1.56      -0.017
  YS02001770           JUNCTION   1075.76  1075.76     0  01:39         1.7        1.74      -0.034
  YS02001774           JUNCTION      0.00   683.12     0  01:36           0       0.203       0.519
  YS02001779           JUNCTION      0.00   685.50     0  01:36           0       0.159      -0.370
  YS02001783           JUNCTION      0.00  1169.82     0  02:23           0        4.48      -0.002
  YS02001784           JUNCTION      0.00  1170.06     0  02:23           0        4.48      -0.001
  YS02001786           JUNCTION      0.00  1170.18     0  02:23           0        4.48       0.001
  YS02001788           JUNCTION      0.00  1170.75     0  02:23           0        4.48       0.001
  YS02001790           JUNCTION      0.00  1185.09     0  02:24           0        4.48       0.032
  YS02001791           JUNCTION      0.00  1292.30     0  02:21           0        4.48      -0.036
  YS02001793           JUNCTION      0.00  1254.53     0  02:24           0        4.48       0.002
  YS02001882           JUNCTION      0.00    25.13     0  02:09           0      0.0158       2.564
  YS02001884           JUNCTION      0.00    33.49     0  02:08           0      0.0523       3.721
  YS02001887           JUNCTION   1053.09  1053.12     0  02:25         1.5        1.53       0.247
  YS02001890           JUNCTION      0.00  1053.13     0  02:25           0        1.49       0.278
  YS02001895           JUNCTION      0.00   517.17     0  02:25           0        1.29       0.118
  YS02001898           JUNCTION      0.00   517.35     0  02:24           0        1.29      -0.037
  YS02001901           JUNCTION      0.00   517.38     0  02:24           0        1.29       0.196
  YS02001904           JUNCTION      0.00   517.45     0  02:24           0         1.3       0.170
  YS02001907           JUNCTION      0.00  2558.69     0  02:25           0        4.24       0.390
  YS02001910           JUNCTION      0.00  1805.74     0  02:25           0        2.91       0.201
  YS02001915           JUNCTION   1181.86  1805.05     0  02:25        1.86        2.93       0.023
  YS02001918           JUNCTION      0.00   627.74     0  02:25           0        1.07      -0.040
  YS02001920           JUNCTION      0.00   627.10     0  02:25           0        1.07       0.036
  YS02001923           JUNCTION      0.00   624.51     0  02:25           0        1.06      -0.031
  YS02001926           JUNCTION      0.00   623.71     0  02:25           0        1.05      -0.014
  YS02001929           JUNCTION    621.68   621.68     0  02:25        1.05        1.05      -0.010
  YS02006553           JUNCTION      0.00   815.64     0  02:38           0        2.53       0.432
  YS02006556           JUNCTION      0.00   814.44     0  02:38           0        2.55       0.275
  YS02006558           JUNCTION   1399.60  1399.60     0  02:25        2.07        4.56       0.061
  YS02006561           JUNCTION      0.00  1170.58     0  02:23           0        4.48      -0.003
  YS02163301           JUNCTION      0.00   856.26     0  01:35           0        3.47       0.044
  YS02163601           JUNCTION      0.00  1427.48     0  01:35           0         4.8       0.103
  YS02164001           JUNCTION      0.00  1427.32     0  01:35           0         4.8       0.050
  CC-1                 OUTFALL       0.00   683.00     0  00:05           0         4.7       0.000
  CC-2                 OUTFALL       0.00   683.00     0  00:05           0        3.97       0.000
  JK-1                 OUTFALL       0.00  1000.00     0  00:10           0        2.51       0.000
  JK-2                 OUTFALL       0.00  1000.00     0  00:10           0       0.942       0.000
  WSC                  OUTFALL       0.00   551.94     0  02:55           0        4.59       0.000
  CC-storage           STORAGE       0.00  3594.83     0  01:37           0        13.1      -0.240
  JK-storage           STORAGE       0.00  1235.05     0  02:19           0        4.64      -0.382
  
  
  **********************
  Node Surcharge Summary
  **********************
  
  Surcharging occurs when water rises above the top of the highest conduit.
  ---------------------------------------------------------------------
                                               Max. Height   Min. Depth
                                   Hours       Above Crown    Below Rim
  Node                 Type      Surcharged         Meters       Meters
  ---------------------------------------------------------------------
  WS02004404           JUNCTION        0.01          0.006        2.774
  WS02006109           JUNCTION        1.62          0.416        1.404
  WS02006110           JUNCTION        0.64          0.544        1.306
  WS02006111           JUNCTION        0.01          0.856        1.014
  WS02006112           JUNCTION        0.80          1.680        0.000
  WS02006113           JUNCTION        0.01          0.705        1.225
  WS02006115           JUNCTION        0.01          0.682        1.568
  WS02006116           JUNCTION        0.01          0.053        2.237
  WS02006228           JUNCTION        1.61          0.810        1.390
  WS02006229           JUNCTION        1.62          0.510        1.940
  WS02006230           JUNCTION        0.64          0.275        1.295
  WS02006231           JUNCTION        0.75          0.340        1.190
  WS02006232           JUNCTION        1.68          0.940        0.540
  WS02006234           JUNCTION        1.00          0.542        0.698
  WS02006235           JUNCTION        1.58          0.647        0.643
  WS02006238           JUNCTION        1.61          0.671        0.759
  WS02006239           JUNCTION        1.59          0.641        0.649
  WS02006240           JUNCTION        1.60          0.787        0.603
  WS02006242           JUNCTION        1.72          0.820        0.000
  WS02006243           JUNCTION        1.61          0.770        0.000
  WS02006245           JUNCTION        1.61          0.831        0.019
  WS02006247           JUNCTION        1.62          0.750        0.010
  WS02006248           JUNCTION        1.60          0.380        0.000
  WS02006249           JUNCTION        1.62          0.390        0.000
  WS02006251           JUNCTION        0.79          0.335        0.845
  WS02006252           JUNCTION        1.98          1.100        0.000
  WS02006256           JUNCTION        5.70          2.050        0.000
  YS02001580           JUNCTION        0.66          0.450        0.000
  YS02001583           JUNCTION        0.66          0.500        0.000
  YS02001586           JUNCTION        0.78          0.510        0.000
  YS02001590           JUNCTION        0.86          0.733        0.017
  YS02001593           JUNCTION        0.86          0.681        0.159
  YS02001596           JUNCTION        0.96          1.024        0.046
  YS02001600           JUNCTION        1.11          1.190        0.000
  YS02001601           JUNCTION        1.56          1.440        0.000
  YS02001602           JUNCTION        1.39          1.270        0.000
  YS02001605           JUNCTION        1.33          1.180        0.000
  YS02001607           JUNCTION        0.82          0.651        0.029
  YS02001610           JUNCTION        0.85          0.680        0.000
  YS02001613           JUNCTION        0.82          0.700        0.000
  YS02001616           JUNCTION        0.77          0.610        0.000
  YS02001619           JUNCTION        0.76          0.610        0.000
  YS02001622           JUNCTION        0.75          0.620        0.000
  YS02001625           JUNCTION        0.94          0.780        0.000
  YS02001629           JUNCTION        0.71          0.470        0.000
  YS02001633           JUNCTION        0.96          1.060        0.000
  YS02001641           JUNCTION        0.90          1.046        0.054
  YS02001644           JUNCTION        0.87          0.920        0.000
  YS02001647           JUNCTION        0.66          0.836        0.064
  YS02001649           JUNCTION        0.79          1.050        0.000
  YS02001652           JUNCTION        0.57          1.130        0.000
  YS02001655           JUNCTION        0.38          1.200        0.000
  YS02001658           JUNCTION        0.18          1.300        0.000
  YS02001661           JUNCTION        0.02          1.390        0.000
  YS02001745           JUNCTION        0.01          1.350        0.000
  YS02001748           JUNCTION        0.07          1.190        0.000
  YS02001751           JUNCTION        0.24          1.200        0.000
  YS02001754           JUNCTION        0.44          1.150        0.000
  YS02001757           JUNCTION        0.86          1.210        0.000
  YS02001759           JUNCTION        0.75          1.210        0.000
  YS02001762           JUNCTION        0.72          1.150        0.000
  YS02001765           JUNCTION        0.66          1.100        0.000
  YS02001767           JUNCTION        0.62          1.030        0.000
  YS02001770           JUNCTION        0.59          0.920        0.000
  YS02001774           JUNCTION        0.70          1.050        0.000
  YS02001779           JUNCTION        0.43          0.680        0.000
  YS02001783           JUNCTION        0.62          0.451        1.149
  YS02001784           JUNCTION        0.60          0.334        1.156
  YS02001786           JUNCTION        0.47          0.085        1.345
  YS02001882           JUNCTION        0.56          0.688        0.142
  YS02001884           JUNCTION        0.57          0.719        0.151
  YS02001887           JUNCTION        0.61          0.811        0.139
  YS02001890           JUNCTION        0.63          0.760        0.000
  YS02001895           JUNCTION        0.55          0.566        0.184
  YS02001898           JUNCTION        0.54          0.530        0.210
  YS02001901           JUNCTION        0.60          0.675        0.195
  YS02001904           JUNCTION        0.59          0.638        0.212
  YS02001907           JUNCTION        0.94          0.950        0.000
  YS02001910           JUNCTION        0.66          0.979        0.121
  YS02001915           JUNCTION        0.56          0.940        0.060
  YS02001918           JUNCTION        0.46          0.631        0.179
  YS02001920           JUNCTION        0.48          0.714        0.426
  YS02001923           JUNCTION        0.16          0.274        0.546
  YS02001926           JUNCTION        0.18          0.321        0.579
  YS02001929           JUNCTION        0.05          0.167        0.613
  YS02006553           JUNCTION        0.96          0.983        0.207
  YS02006556           JUNCTION        0.78          0.938        0.412
  YS02006558           JUNCTION        0.76          0.937        0.463
  YS02006561           JUNCTION        0.42          0.125        1.025
  YS02163301           JUNCTION        0.94          0.979        0.051
  YS02163601           JUNCTION        0.98          1.080        0.000
  YS02164001           JUNCTION        0.90          1.076        0.024
  
  
  *********************
  Node Flooding Summary
  *********************
  
  Flooding refers to all water that overflows a node, whether it ponds or not.
  --------------------------------------------------------------------------
                                                             Total   Maximum
                                 Maximum   Time of Max       Flood    Ponded
                        Hours       Rate    Occurrence      Volume     Depth
  Node                 Flooded       LPS   days hr:min    10^6 ltr    Meters
  --------------------------------------------------------------------------
  WS02006112              0.01   1405.86      0  00:00       0.047     0.000
  WS02006242              0.01     76.77      0  03:35       0.000     0.000
  WS02006243              0.01      2.11      0  02:04       0.000     0.000
  WS02006248              0.01     11.74      0  02:04       0.000     0.000
  WS02006249              0.77     80.60      0  02:56       0.186     0.000
  WS02006252              0.01      0.91      0  00:10       0.000     0.000
  WS02006256              1.07    288.95      0  03:35       0.368     0.000
  YS02001580              0.01    146.79      0  01:34       0.000     0.000
  YS02001583              0.01    236.95      0  01:34       0.001     0.000
  YS02001586              0.53    425.16      0  01:42       0.417     0.000
  YS02001600              0.01     12.26      0  01:33       0.000     0.000
  YS02001601              0.70   1232.83      0  01:40       1.405     0.000
  YS02001602              0.58     62.00      0  01:59       0.119     0.000
  YS02001605              0.01      2.84      0  01:34       0.000     0.000
  YS02001610              0.52    701.62      0  01:41       0.715     0.000
  YS02001613              0.01     33.71      0  01:34       0.000     0.000
  YS02001616              0.01     40.62      0  01:34       0.000     0.000
  YS02001619              0.01     76.68      0  01:34       0.000     0.000
  YS02001622              0.01    231.03      0  01:34       0.001     0.000
  YS02001625              0.48   1303.58      0  01:42       1.071     0.000
  YS02001629              0.11    337.39      0  01:38       0.072     0.000
  YS02001633              0.01      5.07      0  01:36       0.000     0.000
  YS02001644              0.16    948.28      0  01:38       0.268     0.000
  YS02001649              0.01    194.26      0  01:37       0.001     0.000
  YS02001652              0.01    310.14      0  01:35       0.000     0.000
  YS02001655              0.01    502.07      0  01:36       0.001     0.000
  YS02001658              0.01    459.29      0  01:37       0.001     0.000
  YS02001661              0.01    322.41      0  01:37       0.000     0.000
  YS02001745              0.01    410.07      0  01:37       0.001     0.000
  YS02001748              0.01    545.85      0  01:37       0.002     0.000
  YS02001751              0.01    391.88      0  01:37       0.001     0.000
  YS02001754              0.01    290.65      0  01:36       0.000     0.000
  YS02001757              0.01     11.62      0  01:37       0.000     0.000
  YS02001759              0.01      2.92      0  01:37       0.000     0.000
  YS02001762              0.01     10.01      0  01:37       0.000     0.000
  YS02001765              0.01      9.49      0  01:37       0.000     0.000
  YS02001767              0.01    191.81      0  01:36       0.000     0.000
  YS02001770              0.01    398.74      0  01:36       0.001     0.000
  YS02001774              0.01      1.32      0  01:39       0.000     0.000
  YS02001779              0.13    662.90      0  01:36       0.140     0.000
  YS02001890              0.24    536.55      0  02:25       0.191     0.000
  YS02001907              0.41   2558.64      0  02:25       1.743     0.000
  YS02163601              0.01     12.42      0  01:36       0.000     0.000
  
  
  **********************
  Storage Volume Summary
  **********************
  
  --------------------------------------------------------------------------------------------------
                         Average     Avg  Evap Exfil       Maximum     Max    Time of Max    Maximum
                          Volume    Pcnt  Pcnt  Pcnt        Volume    Pcnt     Occurrence    Outflow
  Storage Unit           1000 m3    Full  Loss  Loss       1000 m3    Full    days hr:min        LPS
  --------------------------------------------------------------------------------------------------
  CC-storage               2.315      36     0     0         4.324      67       0  02:13    1766.00
  JK-storage               0.085      29     0     0         0.213      73       0  02:24    2300.00
  
  
  ***********************
  Outfall Loading Summary
  ***********************
  
  -----------------------------------------------------------
                         Flow       Avg       Max       Total
                         Freq      Flow      Flow      Volume
  Outfall Node           Pcnt       LPS       LPS    10^6 ltr
  -----------------------------------------------------------
  CC-1                  45.46    683.00    683.00       4.703
  CC-2                  40.67    683.00    683.00       3.971
  JK-1                  15.61   1000.00   1000.00       2.510
  JK-2                   5.60   1000.00   1000.00       0.942
  WSC                   99.99    213.82    551.94       4.590
  -----------------------------------------------------------
  System                41.47   3579.82    551.94      16.716
  
  
  ********************
  Link Flow Summary
  ********************
  
  -----------------------------------------------------------------------------
                                 Maximum  Time of Max   Maximum    Max/    Max/
                                  |Flow|   Occurrence   |Veloc|    Full    Full
  Link                 Type          LPS  days hr:min     m/sec    Flow   Depth
  -----------------------------------------------------------------------------
  1                    CONDUIT    551.94     0  02:55      2.82    0.19    0.30
  WS02003060WS02003069 CONDUIT    551.02     0  02:53      1.64    0.22    0.34
  WS02003066WSF200     CONDUIT    534.43     0  02:53      2.85    0.09    0.22
  WS02003067WS02003066 CONDUIT    534.38     0  02:53      1.20    0.17    0.41
  WS02003069WS02003072 CONDUIT    550.93     0  02:54      1.37    0.27    0.39
  WS02003072WS02003073 CONDUIT    550.59     0  02:54      1.43    1.19    0.37
  WS02004401WS02004402 CONDUIT   1248.69     0  00:01      2.52    1.50    0.89
  WS02004402WS02004403 CONDUIT    929.44     0  00:01      2.21    1.34    0.91
  WS02004403WS02004404 CONDUIT    877.02     0  00:01      2.01    0.63    0.96
  WS02004404WS02004405 CONDUIT    827.31     0  00:01      2.30    8.11    0.97
  WS02004405WS02004406 CONDUIT    768.45     0  00:02      2.19    1.52    0.96
  WS02004406WS02004407 CONDUIT    536.19     0  02:50      1.04    0.24    0.63
  WS02004407WS02004409 CONDUIT    535.95     0  02:51      2.06    0.19    0.48
  WS02004409WS02004410 CONDUIT    535.63     0  02:51      1.39    0.69    0.67
  WS02004410WS02004411 CONDUIT    535.19     0  02:52      1.32    0.73    0.68
  WS02004411WS02004412 CONDUIT    534.84     0  02:52      1.30    0.76    0.69
  WS02004412WS02004413 CONDUIT    534.54     0  02:52      1.26    0.36    0.78
  WS02004413WS02003067 CONDUIT    534.30     0  02:52      1.11    0.23    0.59
  WS02006109WS02006110 CONDUIT   1446.81     0  00:00      2.88    2.78    1.00
  WS02006110WS02006113 CONDUIT    568.79     0  02:42      1.37    0.52    1.00
  WS02006111WS02006112 CONDUIT   2307.30     0  00:00      9.18    1.10    1.00
  WS02006112WS02006115 CONDUIT    953.54     0  00:00      1.24    0.56    1.00
  WS02006113WS02006111 CONDUIT   1180.41     0  00:00      2.47    1.41    1.00
  WS02006115WS02006116 CONDUIT   1264.47     0  00:00      1.74    1.62    1.00
  WS02006116WS02004401 CONDUIT   1786.04     0  00:00      2.94    2.46    0.86
  WS02006228WS02006109 CONDUIT    869.18     0  00:00      1.91    3.80    1.00
  WS02006229WS02006228 CONDUIT    552.59     0  02:41      1.10    1.83    1.00
  WS02006230WS02006229 CONDUIT    696.39     0  00:00      1.89   15.50    1.00
  WS02006231WS02006230 CONDUIT    574.70     0  03:11      1.91    8.72    1.00
  WS02006232WS02006231 CONDUIT    576.05     0  02:24      1.80    1.21    1.00
  WS02006234WS02006232 CONDUIT    575.30     0  02:24      1.49    1.16    1.00
  WS02006235WS02006234 CONDUIT    570.34     0  02:24      1.48    6.02    1.00
  WS02006238WS02006235 CONDUIT    423.15     0  02:50      1.59    0.94    1.00
  WS02006239WS02006238 CONDUIT    423.16     0  02:30      1.10    1.35    1.00
  WS02006240WS02006239 CONDUIT    421.77     0  02:10      1.10    1.33    1.00
  WS02006242WS02006240 CONDUIT    419.67     0  02:10      1.09    1.67    1.00
  WS02006243WS02006242 CONDUIT    419.79     0  02:10      1.23    0.90    1.00
  WS02006245WS02006243 CONDUIT    419.10     0  02:10      1.41    1.24    1.00
  WS02006247WS02006245 CONDUIT    419.35     0  02:30      1.32    3.33    1.00
  WS02006248WS02006247 CONDUIT    419.28     0  02:30      1.43    0.91    1.00
  WS02006249WS02006248 CONDUIT    420.83     0  02:30      1.36    2.31    1.00
  WS02006251WS02006249 CONDUIT    473.74     0  03:30      1.99    1.37    1.00
  WS02006252WS02006251 CONDUIT    406.13     0  02:24     18.81    1.49    1.00
  WS02006256WS02006235 CONDUIT    288.44     0  00:05      4.18    3.05    1.00
  WSF200WS02003060     CONDUIT    534.56     0  02:53      2.06    0.12    0.28
  YS02001580YS02001583 CONDUIT    200.16     0  01:34      0.96    0.78    1.00
  YS02001583YS02001586 CONDUIT    215.50     0  01:34      0.96    0.33    1.00
  YS02001586YS02001590 CONDUIT    318.25     0  02:06      1.30    0.56    1.00
  YS02001590YS02001593 CONDUIT    318.14     0  02:05      1.13    2.00    1.00
  YS02001593YS02001596 CONDUIT    318.04     0  01:59      1.75    0.50    1.00
  YS02001596YS02001600 CONDUIT    318.01     0  01:39      1.21    0.62    1.00
  YS02001600YS02001601 CONDUIT    318.43     0  01:39      1.13    0.55    1.00
  YS02001601YS02001602 CONDUIT    578.83     0  01:34      2.05    2.09    1.00
  YS02001602YS02001605 CONDUIT    578.46     0  01:34      2.05   12.24    1.00
  YS02001605YS02001607 CONDUIT    577.62     0  01:34      2.04    3.17    1.00
  YS02001607YS02001610 CONDUIT    540.86     0  01:34      0.73    0.51    1.00
  YS02001610YS02001613 CONDUIT    504.65     0  01:34      0.68    0.58    1.00
  YS02001613YS02001616 CONDUIT    472.82     0  02:15      0.67    0.41    1.00
  YS02001616YS02001619 CONDUIT    473.22     0  02:16      0.67    0.82    1.00
  YS02001619YS02001622 CONDUIT    954.85     0  01:37      1.30    1.41    1.00
  YS02001622YS02001625 CONDUIT    955.09     0  01:37      1.22    0.51    1.00
  YS02001625YS02001629 CONDUIT    861.33     0  01:35      1.10    0.41    1.00
  YS02001629YS02163301 CONDUIT    856.26     0  01:35      1.09    1.05    1.00
  YS02001633YS02163601 CONDUIT   1427.48     0  01:35      1.82    1.50    1.00
  YS02001641YS02001644 CONDUIT   1426.16     0  01:35      1.82    4.61    1.00
  YS02001644YS02001647 CONDUIT   1965.52     0  01:35      2.50    1.15    1.00
  YS02001647YS02001649 CONDUIT   1980.56     0  01:35      2.52    1.05    1.00
  YS02001649YS02001757 CONDUIT   2257.29     0  01:36      2.87    1.37    1.00
  YS02001652YS02001649 CONDUIT   1061.13     0  01:38      1.35    0.53    1.00
  YS02001655YS02001652 CONDUIT   1061.25     0  01:38      1.54    0.52    1.00
  YS02001658YS02001655 CONDUIT   1060.74     0  01:38      2.06    0.45    1.00
  YS02001661YS02001658 CONDUIT   1060.54     0  01:38      2.49    0.42    1.00
  YS02001664YS02001661 CONDUIT   1059.43     0  01:38      2.56    0.33    0.99
  YS02001745YS02001748 CONDUIT    667.53     0  01:37      2.45    0.26    1.00
  YS02001748YS02001751 CONDUIT    649.75     0  01:37      1.91    0.33    1.00
  YS02001751YS02001754 CONDUIT    649.26     0  01:37      1.56    0.31    1.00
  YS02001754YS02001757 CONDUIT    649.09     0  01:37      0.83    0.26    1.00
  YS02001757CaochengTiaoxuchi CONDUIT   3594.83     0  01:37      4.89    1.56    1.00
  YS02001759YS02001757 CONDUIT   1525.68     0  01:37      1.94    1.08    1.00
  YS02001762YS02001759 CONDUIT    798.35     0  01:44      1.02    0.92    1.00
  YS02001765YS02001762 CONDUIT    797.97     0  01:44      1.02    0.75    1.00
  YS02001767YS02001765 CONDUIT    798.24     0  01:44      1.02    1.00    1.00
  YS02001770YS02001767 CONDUIT    798.58     0  01:44      1.02    3.16    1.00
  YS02001774YS02001770 CONDUIT    683.12     0  01:36      0.87    0.44    1.00
  YS02001779YS02001774 CONDUIT    685.50     0  01:36      0.87    0.35    1.00
  YS02001783YS02001784 CONDUIT   1170.06     0  02:23      2.33    1.61    1.00
  YS02001784YS02001785 CONDUIT   1170.18     0  02:23      2.33    2.72    1.00
  YS02001786YS02001788 CONDUIT   1170.75     0  02:23      2.49    2.26    0.89
  YS02001788YS02001790 CONDUIT   1185.09     0  02:24      2.73    0.87    0.84
  YS02001790YS02001791 CONDUIT   1292.30     0  02:21      3.43    1.41    0.71
  YS02001791YS02001793 CONDUIT   1254.53     0  02:24      6.77    0.54    0.45
  YS02001793JiankangQianchi CONDUIT   1235.05     0  02:19      2.48    0.10    0.65
  YS02001882YS02001884 CONDUIT     25.13     0  02:09      0.19    0.03    1.00
  YS02001884YS02001887 CONDUIT     36.92     0  02:50      0.16    0.05    1.00
  YS02001887YS02001890 CONDUIT   1053.13     0  02:25      1.34    1.80    1.00
  YS02001890YS02001895 CONDUIT    517.17     0  02:25      0.66    0.24    1.00
  YS02001895YS02001898 CONDUIT    517.35     0  02:24      0.66    0.90    1.00
  YS02001898YS02001901 CONDUIT    517.38     0  02:24      0.66    0.33    1.00
  YS02001901YS02001904 CONDUIT    517.45     0  02:24      0.66    0.80    1.00
  YS02001904YS02001907 CONDUIT    517.32     0  02:24      0.66    0.18    1.00
  YS02001907YS02006553 CONDUIT    815.64     0  02:38      0.91    0.96    1.00
  YS02001910YS02001907 CONDUIT   1806.03     0  02:25      2.30    1.02    1.00
  YS02001915YS02001910 CONDUIT   1805.74     0  02:25      2.30    0.90    1.00
  YS02001918YS02001915 CONDUIT    628.57     0  02:25      0.80    0.35    1.00
  YS02001920YS02001918 CONDUIT    627.74     0  02:25      0.80    0.61    1.00
  YS02001923YS02001920 CONDUIT    627.10     0  02:25      0.80    0.28    1.00
  YS02001926YS02001923 CONDUIT    624.51     0  02:25      0.95    0.89    1.00
  YS02001929YS02001926 CONDUIT    623.71     0  02:25      1.07    0.30    1.00
  YS02006553YS02006556 CONDUIT    814.44     0  02:38      1.04    0.70    1.00
  YS02006556YS02006558 CONDUIT    815.79     0  02:38      1.04    0.64    1.00
  YS02006558YS02006561 CONDUIT   1170.58     0  02:23      4.14    2.59    1.00
  YS02006561YS02001783 CONDUIT   1169.82     0  02:23      2.33    0.61    1.00
  YS02163301YS02001633 CONDUIT    851.39     0  01:35      1.08    0.80    1.00
  YS02163601YS02164001 CONDUIT   1427.32     0  01:35      1.82    1.26    1.00
  YS02164001YS02001641 CONDUIT   1426.63     0  01:35      1.82    1.95    1.00
  CC-R1                PUMP       683.00     0  00:05              1.00
  CC-R2                PUMP       683.00     0  00:05              1.00
  CC-S1                PUMP       200.00     0  00:05              1.00
  CC-S2                PUMP       200.00     0  00:10              1.00
  JK-R1                PUMP      1000.00     0  00:10              1.00
  JK-R2                PUMP      1000.00     0  00:10              1.00
  JK-S                 PUMP       300.00     0  00:05              1.00
  
  
  ***************************
  Flow Classification Summary
  ***************************
  
  -------------------------------------------------------------------------------------
                      Adjusted    ---------- Fraction of Time in Flow Class ---------- 
                       /Actual         Up    Down  Sub   Sup   Up    Down  Norm  Inlet 
  Conduit               Length    Dry  Dry   Dry   Crit  Crit  Crit  Crit  Ltd   Ctrl  
  -------------------------------------------------------------------------------------
  1                       1.00   0.00  0.00  0.00  0.00  1.00  0.00  0.00  0.50  0.00
  WS02003060WS02003069    1.00   0.00  0.00  0.00  0.95  0.05  0.00  0.00  0.74  0.00
  WS02003066WSF200        1.00   0.05  0.00  0.00  0.00  0.95  0.00  0.00  0.88  0.00
  WS02003067WS02003066    1.00   0.03  0.02  0.00  0.96  0.00  0.00  0.00  0.00  0.00
  WS02003069WS02003072    1.00   0.00  0.00  0.00  1.00  0.00  0.00  0.00  0.76  0.00
  WS02003072WS02003073    1.00   0.00  0.00  0.00  0.00  0.00  0.00  1.00  0.00  0.00
  WS02004401WS02004402    1.00   0.00  0.00  0.00  1.00  0.00  0.00  0.00  0.00  0.00
  WS02004402WS02004403    1.00   0.00  0.00  0.00  1.00  0.00  0.00  0.00  0.00  0.00
  WS02004403WS02004404    1.00   0.00  0.00  0.00  1.00  0.00  0.00  0.00  0.00  0.00
  WS02004404WS02004405    1.00   0.00  0.00  0.00  1.00  0.00  0.00  0.00  0.01  0.00
  WS02004405WS02004406    1.00   0.00  0.00  0.00  1.00  0.00  0.00  0.00  0.00  0.00
  WS02004406WS02004407    1.00   0.00  0.00  0.00  1.00  0.00  0.00  0.00  0.00  0.00
  WS02004407WS02004409    1.00   0.00  0.00  0.00  0.99  0.01  0.00  0.00  0.99  0.00
  WS02004409WS02004410    1.00   0.00  0.00  0.00  1.00  0.00  0.00  0.00  0.00  0.00
  WS02004410WS02004411    1.00   0.00  0.00  0.00  1.00  0.00  0.00  0.00  0.00  0.00
  WS02004411WS02004412    1.00   0.00  0.00  0.00  0.99  0.01  0.00  0.00  0.00  0.00
  WS02004412WS02004413    1.00   0.00  0.00  0.00  0.98  0.01  0.00  0.00  0.00  0.00
  WS02004413WS02003067    1.00   0.01  0.02  0.00  0.00  0.00  0.97  0.00  0.00  0.00
  WS02006109WS02006110    1.00   0.00  0.00  0.00  1.00  0.00  0.00  0.00  0.00  0.00
  WS02006110WS02006113    1.00   0.00  0.00  0.00  1.00  0.00  0.00  0.00  0.00  0.00
  WS02006111WS02006112    1.00   0.00  0.00  0.00  1.00  0.00  0.00  0.00  1.00  0.00
  WS02006112WS02006115    1.00   0.00  0.00  0.00  1.00  0.00  0.00  0.00  0.00  0.00
  WS02006113WS02006111    1.00   0.00  0.00  0.00  0.00  1.00  0.00  0.00  0.12  0.00
  WS02006115WS02006116    1.00   0.00  0.00  0.00  1.00  0.00  0.00  0.00  0.00  0.00
  WS02006116WS02004401    1.00   0.00  0.00  0.00  1.00  0.00  0.00  0.00  0.00  0.00
  WS02006228WS02006109    1.00   0.00  0.00  0.00  1.00  0.00  0.00  0.00  0.00  0.00
  WS02006229WS02006228    1.00   0.00  0.00  0.00  1.00  0.00  0.00  0.00  0.00  0.00
  WS02006230WS02006229    1.00   0.00  0.00  0.00  1.00  0.00  0.00  0.00  0.02  0.00
  WS02006231WS02006230    1.00   0.00  0.00  0.00  0.40  0.00  0.60  0.00  0.00  0.00
  WS02006232WS02006231    1.00   0.00  0.00  0.00  0.99  0.00  0.01  0.00  0.00  0.00
  WS02006234WS02006232    1.00   0.00  0.00  0.00  1.00  0.00  0.00  0.00  0.11  0.00
  WS02006235WS02006234    1.00   0.00  0.00  0.00  0.83  0.00  0.16  0.00  0.00  0.00
  WS02006238WS02006235    1.00   0.00  0.00  0.00  1.00  0.00  0.00  0.00  0.00  0.00
  WS02006239WS02006238    1.00   0.00  0.00  0.00  1.00  0.00  0.00  0.00  0.31  0.00
  WS02006240WS02006239    1.00   0.01  0.00  0.00  0.75  0.00  0.00  0.24  0.03  0.00
  WS02006242WS02006240    1.00   0.02  0.00  0.00  0.97  0.00  0.01  0.00  0.00  0.00
  WS02006243WS02006242    1.00   0.02  0.00  0.00  0.97  0.00  0.00  0.01  0.65  0.00
  WS02006245WS02006243    1.00   0.01  0.00  0.00  0.82  0.00  0.00  0.17  0.00  0.00
  WS02006247WS02006245    1.00   0.01  0.00  0.00  0.93  0.00  0.00  0.06  0.00  0.00
  WS02006248WS02006247    1.00   0.01  0.00  0.00  0.95  0.00  0.00  0.04  0.53  0.00
  WS02006249WS02006248    1.00   0.01  0.00  0.00  0.60  0.00  0.39  0.00  0.00  0.00
  WS02006251WS02006249    1.00   0.01  0.00  0.00  0.97  0.02  0.00  0.00  0.62  0.00
  WS02006252WS02006251    1.00   0.01  0.40  0.00  0.16  0.00  0.44  0.00  0.01  0.00
  WS02006256WS02006235    1.00   0.00  0.00  0.00  0.98  0.02  0.00  0.00  0.01  0.00
  WSF200WS02003060        1.00   0.00  0.05  0.00  0.34  0.61  0.00  0.00  0.70  0.00
  YS02001580YS02001583    1.00   0.20  0.44  0.00  0.37  0.00  0.00  0.00  0.70  0.00
  YS02001583YS02001586    1.00   0.32  0.23  0.00  0.45  0.00  0.00  0.00  0.70  0.00
  YS02001586YS02001590    1.00   0.15  0.00  0.00  0.61  0.02  0.00  0.22  0.32  0.00
  YS02001590YS02001593    1.00   0.15  0.00  0.00  0.24  0.00  0.61  0.00  0.00  0.00
  YS02001593YS02001596    1.00   0.15  0.00  0.00  0.27  0.01  0.00  0.57  0.02  0.00
  YS02001596YS02001600    1.00   0.15  0.00  0.00  0.38  0.01  0.00  0.46  0.05  0.00
  YS02001600YS02001601    1.00   0.15  0.00  0.00  0.85  0.00  0.00  0.00  0.61  0.00
  YS02001601YS02001602    1.00   0.15  0.00  0.00  0.85  0.00  0.00  0.00  0.00  0.00
  YS02001602YS02001605    1.00   0.15  0.00  0.00  0.85  0.00  0.00  0.00  0.00  0.00
  YS02001605YS02001607    1.00   0.15  0.00  0.00  0.85  0.00  0.00  0.00  0.00  0.00
  YS02001607YS02001610    1.00   0.15  0.00  0.00  0.85  0.00  0.00  0.00  0.01  0.00
  YS02001610YS02001613    1.00   0.15  0.00  0.00  0.85  0.00  0.00  0.00  0.00  0.00
  YS02001613YS02001616    1.00   0.15  0.00  0.00  0.85  0.00  0.00  0.00  0.00  0.00
  YS02001616YS02001619    1.00   0.15  0.00  0.00  0.85  0.00  0.00  0.00  0.00  0.00
  YS02001619YS02001622    1.00   0.15  0.00  0.00  0.85  0.00  0.00  0.00  0.35  0.00
  YS02001622YS02001625    1.00   0.15  0.00  0.00  0.85  0.00  0.00  0.00  0.03  0.00
  YS02001625YS02001629    1.00   0.15  0.02  0.00  0.31  0.00  0.52  0.00  0.00  0.00
  YS02001629YS02163301    1.00   0.15  0.01  0.00  0.84  0.00  0.00  0.00  0.00  0.00
  YS02001633YS02163601    1.00   0.15  0.00  0.00  0.85  0.00  0.00  0.00  0.01  0.00
  YS02001641YS02001644    1.00   0.15  0.00  0.00  0.85  0.00  0.00  0.00  0.00  0.00
  YS02001644YS02001647    1.00   0.15  0.02  0.00  0.84  0.00  0.00  0.00  0.00  0.00
  YS02001647YS02001649    1.00   0.15  0.01  0.00  0.58  0.26  0.00  0.00  0.58  0.00
  YS02001649YS02001757    1.00   0.00  0.15  0.00  0.58  0.26  0.00  0.00  0.16  0.00
  YS02001652YS02001649    1.00   0.15  0.00  0.00  0.83  0.02  0.00  0.00  0.61  0.00
  YS02001655YS02001652    1.00   0.15  0.00  0.00  0.37  0.01  0.00  0.47  0.07  0.00
  YS02001658YS02001655    1.00   0.15  0.00  0.00  0.58  0.27  0.00  0.00  0.69  0.00
  YS02001661YS02001658    1.00   0.15  0.00  0.00  0.43  0.42  0.00  0.00  0.74  0.00
  YS02001664YS02001661    1.00   0.15  0.00  0.00  0.66  0.20  0.00  0.00  0.86  0.00
  YS02001745YS02001748    1.00   0.15  0.00  0.00  0.20  0.02  0.00  0.64  0.06  0.00
  YS02001748YS02001751    1.00   0.15  0.00  0.00  0.66  0.19  0.00  0.00  0.65  0.00
  YS02001751YS02001754    1.00   0.15  0.00  0.00  0.34  0.01  0.00  0.51  0.05  0.00
  YS02001754YS02001757    1.00   0.00  0.15  0.00  0.85  0.01  0.00  0.00  0.66  0.00
  YS02001757CaochengTiaoxuchi    1.00   0.00  0.00  0.00  0.94  0.06  0.00  0.00  0.77  0.00
  YS02001759YS02001757    1.00   0.00  0.15  0.00  0.84  0.01  0.00  0.00  0.56  0.00
  YS02001762YS02001759    1.00   0.15  0.00  0.00  0.85  0.00  0.00  0.00  0.01  0.00
  YS02001765YS02001762    1.00   0.15  0.00  0.00  0.85  0.00  0.00  0.00  0.60  0.00
  YS02001767YS02001765    1.00   0.15  0.00  0.00  0.85  0.00  0.00  0.00  0.00  0.00
  YS02001770YS02001767    1.00   0.15  0.00  0.00  0.85  0.00  0.00  0.00  0.00  0.00
  YS02001774YS02001770    1.00   0.15  0.00  0.00  0.69  0.00  0.16  0.00  0.01  0.00
  YS02001779YS02001774    1.00   0.15  0.33  0.00  0.52  0.00  0.00  0.00  0.61  0.00
  YS02001783YS02001784    1.00   0.17  0.00  0.00  0.83  0.00  0.00  0.00  0.56  0.00
  YS02001784YS02001785    1.00   0.17  0.00  0.00  0.83  0.00  0.00  0.00  0.41  0.00
  YS02001786YS02001788    1.00   0.17  0.00  0.00  0.50  0.33  0.00  0.00  0.00  0.00
  YS02001788YS02001790    1.00   0.17  0.00  0.00  0.20  0.63  0.00  0.00  0.61  0.00
  YS02001790YS02001791    1.00   0.17  0.00  0.00  0.01  0.82  0.00  0.00  0.16  0.00
  YS02001791YS02001793    1.00   0.17  0.00  0.00  0.00  0.83  0.00  0.00  0.01  0.00
  YS02001793JiankangQianchi    1.00   0.00  0.18  0.00  0.77  0.05  0.00  0.00  0.79  0.00
  YS02001882YS02001884    1.00   0.16  0.00  0.00  0.84  0.00  0.00  0.00  0.00  0.00
  YS02001884YS02001887    1.00   0.15  0.00  0.00  0.85  0.00  0.00  0.00  0.00  0.00
  YS02001887YS02001890    1.00   0.15  0.00  0.00  0.85  0.00  0.00  0.00  0.00  0.00
  YS02001890YS02001895    1.00   0.15  0.01  0.00  0.84  0.00  0.00  0.00  0.00  0.00
  YS02001895YS02001898    1.00   0.16  0.00  0.00  0.83  0.00  0.01  0.00  0.00  0.00
  YS02001898YS02001901    1.00   0.16  0.00  0.00  0.84  0.00  0.00  0.00  0.01  0.00
  YS02001901YS02001904    1.00   0.16  0.00  0.00  0.84  0.00  0.00  0.00  0.00  0.00
  YS02001904YS02001907    1.00   0.15  0.02  0.00  0.84  0.00  0.00  0.00  0.00  0.00
  YS02001907YS02006553    1.00   0.15  0.01  0.00  0.85  0.00  0.00  0.00  0.00  0.00
  YS02001910YS02001907    1.00   0.15  0.00  0.00  0.85  0.00  0.00  0.01  0.02  0.00
  YS02001915YS02001910    1.00   0.15  0.00  0.00  0.84  0.02  0.00  0.00  0.01  0.00
  YS02001918YS02001915    1.00   0.15  0.01  0.00  0.84  0.00  0.00  0.00  0.69  0.00
  YS02001920YS02001918    1.00   0.15  0.01  0.00  0.84  0.00  0.00  0.00  0.00  0.00
  YS02001923YS02001920    1.00   0.15  0.00  0.00  0.85  0.00  0.00  0.00  0.77  0.00
  YS02001926YS02001923    1.00   0.15  0.01  0.00  0.12  0.00  0.73  0.00  0.00  0.00
  YS02001929YS02001926    1.00   0.15  0.00  0.00  0.85  0.00  0.00  0.00  0.80  0.00
  YS02006553YS02006556    1.00   0.15  0.00  0.00  0.85  0.00  0.00  0.00  0.01  0.00
  YS02006556YS02006558    1.00   0.15  0.00  0.00  0.85  0.00  0.00  0.00  0.00  0.00
  YS02006558YS02006561    1.00   0.17  0.00  0.00  0.11  0.72  0.00  0.00  0.15  0.00
  YS02006561YS02001783    1.00   0.17  0.00  0.00  0.28  0.55  0.00  0.00  0.67  0.00
  YS02163301YS02001633    1.00   0.15  0.01  0.00  0.85  0.00  0.00  0.00  0.00  0.00
  YS02163601YS02164001    1.00   0.15  0.00  0.00  0.85  0.00  0.00  0.00  0.01  0.00
  YS02164001YS02001641    1.00   0.15  0.01  0.00  0.85  0.00  0.00  0.00  0.00  0.00
  
  
  *************************
  Conduit Surcharge Summary
  *************************
  
  ----------------------------------------------------------------------------
                                                           Hours        Hours 
                         --------- Hours Full --------   Above Full   Capacity
  Conduit                Both Ends  Upstream  Dnstream   Normal Flow   Limited
  ----------------------------------------------------------------------------
  WS02003072WS02003073        0.01      0.01      0.01      1.09         0.01
  WS02004401WS02004402        0.01      0.01      0.01      0.01         0.01
  WS02004402WS02004403        0.01      0.01      0.01      0.02         0.01
  WS02004403WS02004404        0.01      0.01      0.01      0.01         0.01
  WS02004404WS02004405        0.01      0.01      0.01      2.67         0.01
  WS02004405WS02004406        0.01      0.01      0.01      0.52         0.01
  WS02006109WS02006110        0.64      0.64      1.65      0.74         0.01
  WS02006110WS02006113        0.01      0.01      1.62      0.01         0.01
  WS02006111WS02006112        0.01      0.01      1.98      0.01         0.01
  WS02006112WS02006115        0.01      0.01      0.79      0.01         0.01
  WS02006113WS02006111        0.01      0.01      0.01      0.01         0.01
  WS02006115WS02006116        0.01      0.01      0.01      0.01         0.01
  WS02006116WS02004401        0.01      0.01      0.01      0.02         0.01
  WS02006228WS02006109        1.61      1.64      1.62      2.16         1.61
  WS02006229WS02006228        1.61      1.62      1.61      1.97         1.60
  WS02006230WS02006229        1.80      1.93      1.82      3.01         1.80
  WS02006231WS02006230        0.63      0.63      0.79      2.58         0.01
  WS02006232WS02006231        0.75      0.75      1.68      0.80         0.01
  WS02006234WS02006232        1.58      1.58      1.68      0.79         0.78
  WS02006235WS02006234        0.99      1.00      1.58      2.48         0.02
  WS02006238WS02006235        1.59      1.59      1.70      0.01         0.01
  WS02006239WS02006238        1.61      1.66      1.61      1.83         1.46
  WS02006240WS02006239        1.59      1.61      1.59      1.82         1.40
  WS02006242WS02006240        1.60      1.60      1.77      1.95         0.01
  WS02006243WS02006242        1.62      1.62      1.72      0.01         0.03
  WS02006245WS02006243        1.61      1.62      1.61      1.15         0.99
  WS02006247WS02006245        1.61      1.65      1.61      2.21         1.60
  WS02006248WS02006247        1.61      1.61      1.62      0.01         0.03
  WS02006249WS02006248        1.60      1.60      1.62      2.16         0.01
  WS02006251WS02006249        1.62      1.64      1.62      1.88         1.57
  WS02006252WS02006251        1.95      1.95      1.97      1.95         0.01
  WS02006256WS02006235        2.46      2.52      5.61      1.10         0.01
  YS02001580YS02001583        0.65      0.65      0.70      0.01         0.01
  YS02001583YS02001586        0.66      0.66      0.78      0.01         0.01
  YS02001586YS02001590        0.79      0.79      0.86      0.01         0.01
  YS02001590YS02001593        0.86      0.86      0.87      0.93         0.01
  YS02001593YS02001596        0.86      0.86      0.96      0.01         0.01
  YS02001596YS02001600        1.00      1.00      1.11      0.01         0.01
  YS02001600YS02001601        1.18      1.18      1.56      0.01         0.01
  YS02001601YS02001602        1.39      1.39      1.60      1.13         0.01
  YS02001602YS02001605        1.33      1.33      1.39      2.17         0.01
  YS02001605YS02001607        1.27      1.33      1.27      1.50         1.27
  YS02001607YS02001610        0.82      0.82      0.85      0.01         0.01
  YS02001610YS02001613        0.82      0.82      0.85      0.01         0.01
  YS02001613YS02001616        0.77      0.77      0.82      0.01         0.01
  YS02001616YS02001619        0.76      0.76      0.77      0.01         0.02
  YS02001619YS02001622        0.75      0.76      0.75      0.88         0.73
  YS02001622YS02001625        0.75      0.75      0.94      0.01         0.01
  YS02001625YS02001629        0.71      0.71      0.94      0.01         0.01
  YS02001629YS02163301        0.93      0.93      0.94      0.22         0.18
  YS02001633YS02163601        0.96      0.96      0.98      0.42         0.41
  YS02001641YS02001644        0.86      0.90      0.86      1.62         0.86
  YS02001644YS02001647        0.66      0.66      0.86      0.03         0.01
  YS02001647YS02001649        0.66      0.66      0.79      0.01         0.01
  YS02001649YS02001757        0.78      0.79      0.86      0.27         0.26
  YS02001652YS02001649        0.59      0.59      0.79      0.01         0.01
  YS02001655YS02001652        0.38      0.38      0.57      0.01         0.01
  YS02001658YS02001655        0.18      0.18      0.38      0.01         0.01
  YS02001661YS02001658        0.02      0.02      0.18      0.01         0.01
  YS02001664YS02001661        0.01      0.01      0.05      0.01         0.01
  YS02001745YS02001748        0.01      0.01      0.07      0.01         0.01
  YS02001748YS02001751        0.14      0.14      0.24      0.01         0.01
  YS02001751YS02001754        0.24      0.24      0.44      0.01         0.01
  YS02001754YS02001757        0.50      0.50      0.86      0.01         0.01
  YS02001757CaochengTiaoxuchi        0.73      0.86      1.56      0.40         0.25
  YS02001759YS02001757        0.75      0.75      0.86      0.03         0.04
  YS02001762YS02001759        0.72      0.72      0.75      0.01         0.01
  YS02001765YS02001762        0.66      0.66      0.72      0.01         0.01
  YS02001767YS02001765        0.62      0.62      0.66      0.01         0.04
  YS02001770YS02001767        0.61      0.61      0.62      0.54         0.45
  YS02001774YS02001770        0.59      0.59      0.70      0.01         0.01
  YS02001779YS02001774        0.43      0.43      0.70      0.01         0.01
  YS02001783YS02001784        0.60      0.62      0.60      0.82         0.60
  YS02001784YS02001785        0.47      0.60      0.47      1.14         0.47
  YS02001786YS02001788        0.01      0.47      0.01      0.99         0.01
  YS02001790YS02001791        0.01      0.01      0.01      0.58         0.01
  YS02001793JiankangQianchi        0.01      0.01      4.75      0.01         0.01
  YS02001882YS02001884        0.56      0.56      0.57      0.01         0.01
  YS02001884YS02001887        0.60      0.60      0.61      0.01         0.01
  YS02001887YS02001890        0.63      0.63      0.64      0.17         0.01
  YS02001890YS02001895        0.55      0.55      0.66      0.01         0.01
  YS02001895YS02001898        0.54      0.54      0.55      0.01         0.01
  YS02001898YS02001901        0.55      0.55      0.60      0.01         0.01
  YS02001901YS02001904        0.59      0.59      0.60      0.01         0.01
  YS02001904YS02001907        0.59      0.59      0.96      0.01         0.01
  YS02001907YS02006553        1.16      1.16      1.25      0.01         0.01
  YS02001910YS02001907        0.66      0.66      0.94      0.01         0.01
  YS02001915YS02001910        0.56      0.56      0.66      0.01         0.01
  YS02001918YS02001915        0.46      0.46      0.56      0.01         0.01
  YS02001920YS02001918        0.46      0.46      0.48      0.01         0.01
  YS02001923YS02001920        0.41      0.41      0.48      0.01         0.01
  YS02001926YS02001923        0.15      0.15      0.18      0.01         0.01
  YS02001929YS02001926        0.05      0.05      0.18      0.01         0.01
  YS02006553YS02006556        0.78      0.78      0.96      0.01         0.01
  YS02006556YS02006558        0.87      0.87      0.98      0.01         0.01
  YS02006558YS02006561        0.50      0.76      0.50      1.08         0.50
  YS02006561YS02001783        0.42      0.42      0.62      0.01         0.01
  YS02163301YS02001633        0.94      0.94      0.97      0.01         0.01
  YS02163601YS02164001        0.90      0.90      0.98      0.03         0.01
  YS02164001YS02001641        0.90      0.90      0.90      0.79         0.70
  
  
  ***************
  Pumping Summary
  ***************
  
  ---------------------------------------------------------------------------------------------------------
                                                  Min       Avg       Max     Total     Power    % Time Off
                        Percent   Number of      Flow      Flow      Flow    Volume     Usage    Pump Curve
  Pump                 Utilized   Start-Ups       LPS       LPS       LPS  10^6 ltr     Kw-hr    Low   High
  ---------------------------------------------------------------------------------------------------------
  CC-R1                   23.96          13      0.00    683.00    683.00     4.714     86.38    0.0   23.6
  CC-R2                   20.30          25      0.00    683.00    683.00     3.993     71.88    0.0   44.1
  CC-S1                   27.99          23      0.00    200.00    200.00     1.612      9.52    0.0    0.0
  CC-S2                   25.64          17      0.00    200.00    200.00     1.477      8.64    0.0    0.0
  JK-R1                    8.73          20      0.00   1000.00   1000.00     2.513     24.58    0.0    0.0
  JK-R2                    3.27          10      0.00   1000.00   1000.00     0.943      8.11    0.0    0.0
  JK-S                    13.40          30      0.00    300.00    300.00     1.158     18.01    0.0    0.0
  

  Analysis begun on:  Wed Sep  6 15:56:55 2023
  Analysis ended on:  Wed Sep  6 15:57:04 2023
  Total elapsed time: 00:00:09