
  OWA STORM WATER MANAGEMENT MODEL - VERSION v5.2.3 (OWA 2023-06-06)
  ------------------------------------------------------------

  WARNING 04: minimum elevation drop used for Conduit WS02004404WS02004405
  WARNING 03: negative offset ignored for Link YS02001904YS02001907
  
  ****************
  Analysis Options
  ****************
  Flow Units ............... LPS
  Process Models:
    Rainfall/Runoff ........ YES
    RDII ................... NO
    Snowmelt ............... NO
    Groundwater ............ NO
    Flow Routing ........... YES
    Ponding Allowed ........ NO
    Water Quality .......... NO
  Infiltration Method ...... HORTON
  Flow Routing Method ...... DYNWAVE
  Surcharge Method ......... EXTRAN
  Starting Date ............ 08/28/2015 08:00:00
  Ending Date .............. 08/28/2015 16:00:00
  Antecedent Dry Days ...... 8.0
  Report Time Step ......... 00:01:00
  Wet Time Step ............ 00:01:00
  Dry Time Step ............ 00:01:00
  Routing Time Step ........ 30.00 sec
  Variable Time Step ....... YES
  Maximum Trials ........... 8
  Number of Threads ........ 2
  Head Tolerance ........... 0.001500 m
  
  
  **************************        Volume         Depth
  Runoff Quantity Continuity     hectare-m            mm
  **************************     ---------       -------
  Initial LID Storage ......         0.049         1.488
  Total Precipitation ......         3.865       116.510
  Evaporation Loss .........         0.000         0.000
  Infiltration Loss ........         0.081         2.431
  Surface Runoff ...........         3.025        91.211
  Final Storage ............         0.809        24.380
  Continuity Error (%) .....        -0.021
  
  
  **************************        Volume        Volume
  Flow Routing Continuity        hectare-m      10^6 ltr
  **************************     ---------     ---------
  Dry Weather Inflow .......         0.025         0.251
  Wet Weather Inflow .......         3.026        30.264
  Groundwater Inflow .......         0.000         0.000
  RDII Inflow ..............         0.000         0.000
  External Inflow ..........         0.083         0.834
  External Outflow .........         1.830        18.297
  Flooding Loss ............         1.399        13.994
  Evaporation Loss .........         0.000         0.000
  Exfiltration Loss ........         0.000         0.000
  Initial Stored Volume ....         0.243         2.431
  Final Stored Volume ......         0.181         1.814
  Continuity Error (%) .....        -0.964
  
  
  *************************
  Highest Continuity Errors
  *************************
  Node YS02001884 (4.91%)
  Node YS02001583 (-3.25%)
  Node WS02006256 (-3.20%)
  
  
  ***************************
  Time-Step Critical Elements
  ***************************
  Link WS02006252WS02006251 (35.23%)
  Link WS02006238WS02006235 (20.34%)
  Link WS02004404WS02004405 (12.33%)
  Link WS02006235WS02006234 (8.37%)
  Link WS02003066WSF200 (6.98%)
  
  
  ********************************
  Highest Flow Instability Indexes
  ********************************
  Link WS02006113WS02006111 (41)
  Link WS02006256WS02006235 (22)
  Link WS02006252WS02006251 (21)
  Link WS02006111WS02006112 (20)
  Link WS02006238WS02006235 (20)
  
  
  *********************************
  Most Frequent Nonconverging Nodes
  *********************************
  Node CC-1 (17.82%)
  Node CC-2 (17.82%)
  Node JK-1 (17.82%)
  Node JK-2 (17.82%)
  Node WSC (17.82%)
  
  
  *************************
  Routing Time Step Summary
  *************************
  Minimum Time Step           :     0.00 sec
  Average Time Step           :     2.32 sec
  Maximum Time Step           :    30.00 sec
  % of Time in Steady State   :     0.00
  Average Iterations per Step :     3.60
  % of Steps Not Converging   :    17.82
  Time Step Frequencies       :
     30.000 - 13.228 sec      :     0.01 %
     13.228 -  5.833 sec      :     9.50 %
      5.833 -  2.572 sec      :    25.97 %
      2.572 -  1.134 sec      :    24.52 %
      1.134 -  0.500 sec      :    40.00 %
  
  
  ***************************
  Subcatchment Runoff Summary
  ***************************
  
  ------------------------------------------------------------------------------------------------------------------------------
                            Total      Total      Total      Total     Imperv       Perv      Total       Total     Peak  Runoff
                           Precip      Runon       Evap      Infil     Runoff     Runoff     Runoff      Runoff   Runoff   Coeff
  Subcatchment                 mm         mm         mm         mm         mm         mm         mm    10^6 ltr      LPS
  ------------------------------------------------------------------------------------------------------------------------------
  sub60                    139.36       0.00       0.00       1.45      93.74      11.46     107.87        1.42   960.35   0.774
  sub61                    139.36       0.00       0.00       2.23      93.65      17.14     112.93        2.07  1404.22   0.810
  sub62                    139.36       0.00       0.00       0.99      99.86       7.78     110.15        3.02  1951.45   0.790
  sub63                    139.36       0.00       0.00       4.09      80.21      28.99     111.34        2.53  1632.37   0.799
  sub64                    139.36       0.00       0.00       1.96      91.36      14.32     108.28        2.60  1615.76   0.777
  sub65                    139.36       0.00       0.00       1.80      98.62      13.09     113.80        3.13  1893.54   0.817
  sub66                    139.36       0.00       0.00       4.78      77.63      27.27     107.33        5.01  2565.48   0.770
  sub67                     51.25       0.00       0.00       0.90      37.00       2.40      39.40        0.73   536.00   0.769
  sub68                     51.25       0.00       0.00       1.58      32.67       3.89      36.56        1.01   683.38   0.713
  sub69                    139.36       0.00       0.00       1.59      93.80      14.97     111.21        4.12  2445.62   0.798
  sub70                    139.36       0.00       0.00       5.34      75.20      33.45     110.77        3.20  1483.22   0.795
  sub71                     51.25       0.00       0.00       0.84      32.77       2.09      34.86        0.91   566.97   0.680
  sub72                     51.25       0.00       0.00       0.80      35.39       1.94      37.34        0.51   292.18   0.729
  

  ***********************
  LID Performance Summary
  ***********************

  --------------------------------------------------------------------------------------------------------------------
                                         Total      Evap     Infil   Surface    Drain    Initial     Final  Continuity
                                        Inflow      Loss      Loss   Outflow   Outflow   Storage   Storage       Error
  Subcatchment      LID Control             mm        mm        mm        mm        mm        mm        mm           %
  --------------------------------------------------------------------------------------------------------------------
  sub60             GreenRoof           139.36      0.00      0.00     11.73      0.00      7.05    134.68        0.00
  sub61             GreenRoof           139.36      0.00      0.00     11.73      0.00      7.05    134.68        0.00
  sub62             GreenRoof           139.36      0.00      0.00     11.73      0.00      7.05    134.68        0.00
  sub63             GreenRoof           139.36      0.00      0.00     11.73      0.00      7.05    134.68        0.00
  sub64             GreenRoof           139.36      0.00      0.00     11.73      0.00      7.05    134.68        0.00
  sub65             GreenRoof           139.36      0.00      0.00     11.73      0.00      7.05    134.68        0.00
  sub66             GreenRoof           139.36      0.00      0.00     11.73      0.00      7.05    134.68        0.00
  sub67             GreenRoof            51.25      0.00      0.00      0.00      0.00      7.05     58.31       -0.03
  sub68             GreenRoof            51.25      0.00      0.00      0.00      0.00      7.05     58.31       -0.03
  sub69             GreenRoof           139.36      0.00      0.00     11.73      0.00      7.05    134.68        0.00
  sub70             GreenRoof           139.36      0.00      0.00     11.73      0.00      7.05    134.68        0.00
  sub71             GreenRoof            51.25      0.00      0.00      0.00      0.00      7.05     58.31       -0.03
  sub72             GreenRoof            51.25      0.00      0.00      0.00      0.00      7.05     58.31       -0.03
  
  ******************
  Node Depth Summary
  ******************
  
  ---------------------------------------------------------------------------------
                                 Average  Maximum  Maximum  Time of Max    Reported
                                   Depth    Depth      HGL   Occurrence   Max Depth
  Node                 Type       Meters   Meters   Meters  days hr:min      Meters
  ---------------------------------------------------------------------------------
  WS02003060           JUNCTION     0.21     0.38     5.32     0  02:38        0.38
  WS02003066           JUNCTION     0.18     0.30     5.85     0  02:37        0.30
  WS02003067           JUNCTION     0.48     0.70     6.02     0  02:37        0.70
  WS02003069           JUNCTION     0.23     0.43     5.01     0  02:38        0.43
  WS02003072           JUNCTION     0.29     0.50     4.87     0  02:39        0.50
  WS02003073           JUNCTION     0.16     0.30     4.36     0  02:39        0.30
  WS02004401           JUNCTION     0.57     0.85     6.85     0  02:35        0.85
  WS02004402           JUNCTION     0.61     0.88     6.84     0  02:35        0.88
  WS02004403           JUNCTION     0.63     0.89     6.82     0  02:35        0.89
  WS02004404           JUNCTION     0.71     0.96     6.81     0  02:35        0.96
  WS02004405           JUNCTION     0.70     0.96     6.81     0  02:35        0.96
  WS02004406           JUNCTION     0.72     0.96     6.79     0  02:36        0.96
  WS02004407           JUNCTION     0.16     0.30     6.61     0  02:36        0.30
  WS02004409           JUNCTION     0.36     0.67     6.44     0  02:36        0.67
  WS02004410           JUNCTION     0.39     0.68     6.40     0  02:36        0.68
  WS02004411           JUNCTION     0.41     0.69     6.37     0  02:37        0.69
  WS02004412           JUNCTION     0.43     0.70     6.34     0  02:37        0.70
  WS02004413           JUNCTION     0.59     0.86     6.33     0  02:37        0.86
  WS02006109           JUNCTION     0.62     1.18     7.80     0  02:06        1.18
  WS02006110           JUNCTION     0.63     1.29     7.87     0  02:06        1.29
  WS02006111           JUNCTION     0.17     0.90     7.60     0  00:00        0.40
  WS02006112           JUNCTION     0.73     2.68     8.56     0  00:00        1.14
  WS02006113           JUNCTION     0.25     1.40     8.29     0  00:00        0.46
  WS02006115           JUNCTION     0.45     1.65     7.79     0  00:00        0.86
  WS02006116           JUNCTION     0.54     1.06     7.10     0  00:00        0.83
  WS02006228           JUNCTION     0.61     1.17     7.82     0  02:08        1.12
  WS02006229           JUNCTION     0.58     1.18     7.87     0  02:08        1.09
  WS02006230           JUNCTION     0.58     1.33     8.07     0  02:08        1.17
  WS02006231           JUNCTION     0.38     1.03     8.16     0  02:08        0.93
  WS02006232           JUNCTION     0.51     1.55     8.59     0  00:15        1.17
  WS02006234           JUNCTION     0.43     1.96     9.12     0  02:08        1.96
  WS02006235           JUNCTION     0.47     2.00     9.16     0  02:08        2.00
  WS02006238           JUNCTION     0.49     2.15     9.29     0  02:08        2.15
  WS02006239           JUNCTION     0.47     2.03     9.24     0  02:08        2.03
  WS02006240           JUNCTION     0.44     1.61     8.90     0  02:05        1.58
  WS02006242           JUNCTION     0.51     1.55     8.82     0  00:15        1.55
  WS02006243           JUNCTION     0.43     1.48     8.90     0  02:08        1.48
  WS02006245           JUNCTION     0.44     1.56     9.05     0  02:08        1.56
  WS02006247           JUNCTION     0.46     1.28     8.78     0  02:40        1.26
  WS02006248           JUNCTION     0.43     1.10     8.69     0  02:05        1.10
  WS02006249           JUNCTION     0.46     1.09     8.69     0  01:55        1.09
  WS02006251           JUNCTION     0.46     1.30     8.97     0  02:08        1.21
  WS02006252           JUNCTION     0.34     1.50     9.74     0  00:10        1.50
  WS02006256           JUNCTION     0.83     2.35     9.28     0  00:15        2.35
  WSF200               JUNCTION     0.15     0.29     5.52     0  02:38        0.29
  YS02001580           JUNCTION     0.16     1.05     9.59     0  01:36        0.77
  YS02001583           JUNCTION     0.19     1.02     9.52     0  01:36        1.01
  YS02001586           JUNCTION     0.29     1.13     9.30     0  01:36        1.13
  YS02001590           JUNCTION     0.40     1.40     9.26     0  02:08        1.40
  YS02001593           JUNCTION     0.34     1.41     9.27     0  02:08        1.29
  YS02001596           JUNCTION     0.46     1.80     9.22     0  02:08        1.80
  YS02001600           JUNCTION     0.54     1.87     9.00     0  01:36        1.86
  YS02001601           JUNCTION     0.71     2.06     8.90     0  01:35        2.06
  YS02001602           JUNCTION     0.61     1.87     8.77     0  01:36        1.87
  YS02001605           JUNCTION     0.57     1.78     8.68     0  02:08        1.78
  YS02001607           JUNCTION     0.54     1.68     8.53     0  02:08        1.64
  YS02001610           JUNCTION     0.58     1.68     8.48     0  01:39        1.68
  YS02001613           JUNCTION     0.54     1.67     8.52     0  02:08        1.67
  YS02001616           JUNCTION     0.49     1.61     8.52     0  01:46        1.61
  YS02001619           JUNCTION     0.47     1.61     8.54     0  01:45        1.61
  YS02001622           JUNCTION     0.46     1.59     8.49     0  02:08        1.58
  YS02001625           JUNCTION     0.68     1.78     8.38     0  01:39        1.78
  YS02001629           JUNCTION     0.59     1.85     8.40     0  01:39        1.85
  YS02001633           JUNCTION     0.66     2.08     8.53     0  01:47        2.08
  YS02001641           JUNCTION     0.63     2.10     8.54     0  02:08        2.10
  YS02001644           JUNCTION     0.63     1.92     8.35     0  01:41        1.92
  YS02001647           JUNCTION     0.44     1.82     8.43     0  01:43        1.81
  YS02001649           JUNCTION     0.50     2.05     8.44     0  01:43        2.05
  YS02001652           JUNCTION     0.40     2.16     8.76     0  01:41        1.99
  YS02001655           JUNCTION     0.32     2.20     9.05     0  01:41        2.20
  YS02001658           JUNCTION     0.25     2.18     9.32     0  01:43        1.74
  YS02001661           JUNCTION     0.23     1.62     9.02     0  01:48        1.61
  YS02001664           JUNCTION     0.10     1.24     9.17     0  01:48        1.24
  YS02001745           JUNCTION     0.13     1.13     8.64     0  01:49        1.13
  YS02001748           JUNCTION     0.23     2.27     9.35     0  01:43        1.51
  YS02001751           JUNCTION     0.28     2.20     9.08     0  01:43        1.65
  YS02001754           JUNCTION     0.36     2.20     8.81     0  02:08        2.20
  YS02001757           JUNCTION     0.52     2.17     8.43     0  01:47        2.17
  YS02001759           JUNCTION     0.48     2.21     8.57     0  01:47        2.21
  YS02001762           JUNCTION     0.47     2.15     8.55     0  01:47        2.15
  YS02001765           JUNCTION     0.45     2.10     8.55     0  01:47        2.10
  YS02001767           JUNCTION     0.44     2.03     8.52     0  01:47        2.03
  YS02001770           JUNCTION     0.45     1.95     8.45     0  01:43        1.95
  YS02001774           JUNCTION     0.50     2.00     8.42     0  01:46        2.00
  YS02001779           JUNCTION     0.35     1.68     8.37     0  01:41        1.68
  YS02001783           JUNCTION     0.17     1.32     7.46     0  02:11        1.21
  YS02001784           JUNCTION     0.19     1.17     7.24     0  02:11        1.11
  YS02001786           JUNCTION     0.16     0.92     6.95     0  02:11        0.87
  YS02001788           JUNCTION     0.12     0.62     6.60     0  02:11        0.62
  YS02001790           JUNCTION     0.14     0.72     6.37     0  02:12        0.72
  YS02001791           JUNCTION     0.09     0.44     5.91     0  02:12        0.43
  YS02001793           JUNCTION     0.05     0.29     5.12     0  02:17        0.29
  YS02001882           JUNCTION     0.22     1.83     8.55     0  02:10        1.61
  YS02001884           JUNCTION     0.30     1.92     8.53     0  02:10        1.72
  YS02001887           JUNCTION     0.37     1.91     8.45     0  02:10        1.80
  YS02001890           JUNCTION     0.40     1.81     8.32     0  02:10        1.81
  YS02001895           JUNCTION     0.20     1.60     8.34     0  02:10        1.56
  YS02001898           JUNCTION     0.20     1.61     8.34     0  02:10        1.56
  YS02001901           JUNCTION     0.29     1.71     8.32     0  02:10        1.67
  YS02001904           JUNCTION     0.28     1.65     8.28     0  02:10        1.63
  YS02001907           JUNCTION     0.56     1.96     8.25     0  02:11        1.96
  YS02001910           JUNCTION     0.38     2.07     8.58     0  02:10        1.82
  YS02001915           JUNCTION     0.22     1.95     8.67     0  02:10        1.66
  YS02001918           JUNCTION     0.11     1.81     8.88     0  02:12        1.34
  YS02001920           JUNCTION     0.19     2.14     9.15     0  02:12        1.41
  YS02001923           JUNCTION     0.08     2.03     9.29     0  02:12        1.18
  YS02001926           JUNCTION     0.12     1.90     9.35     0  02:12        1.00
  YS02001929           JUNCTION     0.06     1.78     9.47     0  02:12        0.73
  YS02006553           JUNCTION     0.57     1.97     8.26     0  02:12        1.96
  YS02006556           JUNCTION     0.54     1.95     8.26     0  02:11        1.93
  YS02006558           JUNCTION     0.58     2.00     8.26     0  02:11        1.96
  YS02006561           JUNCTION     0.11     1.03     7.69     0  02:11        0.88
  YS02163301           JUNCTION     0.61     2.03     8.55     0  02:08        2.03
  YS02163601           JUNCTION     0.69     2.08     8.48     0  01:47        2.08
  YS02164001           JUNCTION     0.62     2.02     8.48     0  02:08        2.00
  CC-1                 OUTFALL      0.00     0.00     0.00     0  00:00        0.00
  CC-2                 OUTFALL      0.00     0.00     0.00     0  00:00        0.00
  JK-1                 OUTFALL      0.00     0.00     0.00     0  00:00        0.00
  JK-2                 OUTFALL      0.00     0.00     0.00     0  00:00        0.00
  WSC                  OUTFALL      0.16     0.30     0.97     0  02:39        0.30
  CC-storage           STORAGE      0.88     1.89     7.39     0  02:31        1.89
  JK-storage           STORAGE      1.34     4.23     5.03     0  02:20        4.17
  
  
  *******************
  Node Inflow Summary
  *******************
  
  -------------------------------------------------------------------------------------------------
                                  Maximum  Maximum                  Lateral       Total        Flow
                                  Lateral    Total  Time of Max      Inflow      Inflow     Balance
                                   Inflow   Inflow   Occurrence      Volume      Volume       Error
  Node                 Type           LPS      LPS  days hr:min    10^6 ltr    10^6 ltr     Percent
  -------------------------------------------------------------------------------------------------
  WS02003060           JUNCTION     16.53   553.11     0  02:38       0.476        5.16       0.045
  WS02003066           JUNCTION      0.00   536.49     0  02:37           0        4.69       0.029
  WS02003067           JUNCTION      0.00   536.49     0  02:37           0        4.69       0.088
  WS02003069           JUNCTION      0.32   553.29     0  02:38     0.00922        5.17       0.074
  WS02003072           JUNCTION      0.00   553.15     0  02:38           0        5.17       0.133
  WS02003073           JUNCTION      1.82   554.92     0  02:39      0.0524        5.21       0.108
  WS02004401           JUNCTION      0.00  1677.78     0  00:00           0         4.8       0.234
  WS02004402           JUNCTION      0.00  1171.33     0  00:01           0        4.79       0.230
  WS02004403           JUNCTION      0.00   884.75     0  00:01           0        4.78       0.224
  WS02004404           JUNCTION      0.16   832.59     0  00:01     0.00467        4.77       0.199
  WS02004405           JUNCTION      0.04   776.49     0  00:01      0.0011        4.76       0.247
  WS02004406           JUNCTION      0.00   711.76     0  00:02           0        4.75       0.452
  WS02004407           JUNCTION      0.00   536.95     0  02:36           0        4.73       0.020
  WS02004409           JUNCTION      0.00   536.84     0  02:36           0        4.73       0.053
  WS02004410           JUNCTION      0.00   536.73     0  02:36           0        4.72       0.092
  WS02004411           JUNCTION      0.00   536.69     0  02:36           0        4.72       0.120
  WS02004412           JUNCTION      0.00   536.63     0  02:37           0        4.71       0.155
  WS02004413           JUNCTION      0.00   536.61     0  02:37           0        4.71       0.282
  WS02006109           JUNCTION      1.23  1308.01     0  00:00      0.0354        4.73       0.137
  WS02006110           JUNCTION      0.00   565.87     0  02:41           0         4.7      -0.773
  WS02006111           JUNCTION      0.00  1176.04     0  00:00           0        4.73      -0.818
  WS02006112           JUNCTION      0.00  2307.30     0  00:00           0        4.77      -0.015
  WS02006113           JUNCTION      0.00   578.68     0  02:41           0        4.69      -1.053
  WS02006115           JUNCTION      0.00   899.27     0  00:00           0        4.74      -0.684
  WS02006116           JUNCTION      0.00  1098.16     0  00:01           0        4.78      -0.489
  WS02006228           JUNCTION      0.00   561.38     0  02:08           0        4.67       0.056
  WS02006229           JUNCTION      0.00   561.30     0  02:08           0        4.66       0.198
  WS02006230           JUNCTION     10.28   590.43     0  02:50       0.296        4.64       0.036
  WS02006231           JUNCTION      0.00   576.05     0  02:40           0        4.34      -0.022
  WS02006232           JUNCTION      0.00   575.45     0  02:40           0        4.34       0.124
  WS02006234           JUNCTION      0.00   571.41     0  02:40           0        4.33      -0.278
  WS02006235           JUNCTION      0.00   564.00     0  00:15           0        4.41       0.255
  WS02006238           JUNCTION      0.00   427.56     0  03:41           0        3.76      -0.251
  WS02006239           JUNCTION      0.00   427.16     0  03:41           0         3.7      -0.222
  WS02006240           JUNCTION      0.00   427.02     0  03:41           0        3.68       0.010
  WS02006242           JUNCTION      0.00   426.45     0  03:41           0        3.68       0.049
  WS02006243           JUNCTION      0.00   425.73     0  03:41           0        3.67      -0.175
  WS02006245           JUNCTION      0.00   425.28     0  03:41           0        3.69       0.314
  WS02006247           JUNCTION      0.00   424.31     0  03:41           0        3.69       0.003
  WS02006248           JUNCTION      0.00   427.32     0  01:48           0        3.68      -0.108
  WS02006249           JUNCTION      0.00   436.30     0  02:08           0        3.87       0.393
  WS02006251           JUNCTION      0.08   409.18     0  02:08     0.00222        3.87      -0.014
  WS02006252           JUNCTION      0.00   400.00     0  00:10           0        3.85      -0.273
  WS02006256           JUNCTION      0.00   300.00     0  00:15           0       0.952      -3.096
  WSF200               JUNCTION      0.00   536.51     0  02:38           0        4.69       0.009
  YS02001580           JUNCTION      0.00    80.96     0  01:36           0      0.0041       1.843
  YS02001583           JUNCTION      0.00   140.81     0  01:35           0      0.0154      -3.144
  YS02001586           JUNCTION   1483.22  1483.22     0  01:52         3.2        3.21       0.023
  YS02001590           JUNCTION      0.00   339.30     0  02:08           0        1.78      -0.014
  YS02001593           JUNCTION      0.00   328.69     0  02:08           0        1.78       0.006
  YS02001596           JUNCTION      0.00   318.02     0  02:20           0        1.78      -0.017
  YS02001600           JUNCTION      0.00   318.06     0  01:46           0        1.78       0.004
  YS02001601           JUNCTION   2445.62  2763.10     0  01:50        4.12        5.89      -0.001
  YS02001602           JUNCTION      0.00   508.75     0  01:35           0        2.77       0.008
  YS02001605           JUNCTION      0.00   509.32     0  01:35           0        2.57       0.012
  YS02001607           JUNCTION      0.00   509.09     0  01:35           0        2.56       0.071
  YS02001610           JUNCTION      0.00   955.11     0  01:57           0        3.39       0.056
  YS02001613           JUNCTION      0.00   618.95     0  01:57           0        2.56       0.059
  YS02001616           JUNCTION      0.00   619.58     0  01:57           0        2.56       0.020
  YS02001619           JUNCTION   2565.48  2565.48     0  01:51        5.01        6.74      -0.009
  YS02001622           JUNCTION      0.00  1054.26     0  01:58           0        5.42      -0.002
  YS02001625           JUNCTION      0.00  1505.61     0  01:58           0        5.97       0.164
  YS02001629           JUNCTION      0.00  1048.39     0  01:50           0        4.23      -0.008
  YS02001633           JUNCTION   1893.74  1893.74     0  01:50        3.14        6.47       0.050
  YS02001641           JUNCTION      0.00  1393.41     0  01:39           0        5.58       0.050
  YS02001644           JUNCTION   1615.80  3115.15     0  01:50         2.6        8.38       0.022
  YS02001647           JUNCTION      0.00  1790.43     0  01:39           0         6.4       0.005
  YS02001649           JUNCTION      0.00  2061.26     0  01:39           0        8.73      -0.002
  YS02001652           JUNCTION      0.00  1634.76     0  01:50           0        2.54      -0.051
  YS02001655           JUNCTION      0.15  1635.34     0  01:50     0.00443        2.53      -0.051
  YS02001658           JUNCTION      0.00  1634.17     0  01:50           0        2.54      -0.077
  YS02001661           JUNCTION      0.00  1634.07     0  01:50           0        2.54       0.002
  YS02001664           JUNCTION   1632.37  1632.37     0  01:50        2.53        2.53      -0.008
  YS02001745           JUNCTION    960.35   960.35     0  01:49        1.42        1.43       0.134
  YS02001748           JUNCTION      0.04   967.97     0  01:49      0.0013        1.43      -0.210
  YS02001751           JUNCTION      0.01   968.60     0  01:49    0.000317        1.42      -0.006
  YS02001754           JUNCTION      0.26   969.74     0  01:49     0.00749        1.44      -0.093
  YS02001757           JUNCTION      0.00  3451.37     0  01:47           0          14       0.030
  YS02001759           JUNCTION   1404.26  1481.51     0  01:48        2.07           4      -0.013
  YS02001762           JUNCTION      0.00   774.74     0  01:43           0        1.92      -0.007
  YS02001765           JUNCTION      0.00   775.19     0  01:43           0        1.92      -0.004
  YS02001767           JUNCTION      0.54   775.46     0  01:43      0.0154        1.92      -0.003
  YS02001770           JUNCTION   1951.60  1958.19     0  01:50        3.02        3.07      -0.021
  YS02001774           JUNCTION      0.00   852.46     0  01:55           0       0.845       0.109
  YS02001779           JUNCTION      0.01   852.03     0  01:55    0.000144       0.798      -0.082
  YS02001783           JUNCTION      0.00  1152.45     0  02:13           0        2.92       0.006
  YS02001784           JUNCTION      1.06  1153.33     0  02:13      0.0305        2.95       0.017
  YS02001786           JUNCTION      0.06  1153.43     0  02:12     0.00162        2.95       0.021
  YS02001788           JUNCTION      0.07  1154.10     0  02:12     0.00204        2.95       0.010
  YS02001790           JUNCTION      0.15  1169.76     0  02:14     0.00446        2.95       0.018
  YS02001791           JUNCTION      0.00  1281.85     0  02:12           0        2.95      -0.013
  YS02001793           JUNCTION      0.00  1230.92     0  02:14           0        2.95       0.005
  YS02001882           JUNCTION      0.00    51.60     0  02:09           0      0.0122       3.764
  YS02001884           JUNCTION      0.00    76.00     0  02:09           0      0.0479       5.161
  YS02001887           JUNCTION    536.45   536.45     0  02:13       0.746       0.779       0.567
  YS02001890           JUNCTION      0.00   536.51     0  02:13           0       0.739       0.673
  YS02001895           JUNCTION      0.00   507.27     0  02:14           0       0.729       0.176
  YS02001898           JUNCTION      0.00   507.79     0  02:14           0       0.727       0.043
  YS02001901           JUNCTION      0.00   508.04     0  02:14           0        0.73       0.430
  YS02001904           JUNCTION      0.00   508.04     0  02:14           0       0.734       0.371
  YS02001907           JUNCTION      0.00  1500.13     0  02:13           0        2.23       0.802
  YS02001910           JUNCTION      0.00  1005.28     0  02:13           0        1.51       0.476
  YS02001915           JUNCTION    566.99  1004.65     0  02:13       0.912        1.55       0.100
  YS02001918           JUNCTION      0.00   443.98     0  02:13           0       0.663       0.042
  YS02001920           JUNCTION      2.87   443.33     0  02:13      0.0827       0.646       0.135
  YS02001923           JUNCTION      0.04   400.95     0  02:11     0.00109       0.547      -0.134
  YS02001926           JUNCTION      0.05   616.23     0  02:12      0.0015       0.527      -0.201
  YS02001929           JUNCTION    292.18   417.92     0  02:11       0.513       0.515      -0.043
  YS02006553           JUNCTION      0.00   802.55     0  02:23           0        1.93       0.619
  YS02006556           JUNCTION      0.00   802.57     0  02:23           0        1.94       0.414
  YS02006558           JUNCTION    684.26  1170.29     0  02:11        1.03        2.94       0.120
  YS02006561           JUNCTION      0.00  1169.69     0  02:11           0        2.92      -0.002
  YS02163301           JUNCTION      0.00  1048.12     0  01:50           0        4.23       0.029
  YS02163601           JUNCTION      0.11  1397.20     0  01:39     0.00317        5.57       0.089
  YS02164001           JUNCTION      0.00  1396.08     0  01:39           0        5.57       0.041
  CC-1                 OUTFALL       0.00   683.00     0  00:30           0         5.8       0.000
  CC-2                 OUTFALL       0.00   683.00     0  00:05           0        5.16       0.000
  JK-1                 OUTFALL       0.00  1000.00     0  01:50           0        1.07       0.000
  JK-2                 OUTFALL       0.00  1000.00     0  00:05           0        1.06       0.000
  WSC                  OUTFALL       0.00   554.90     0  02:39           0        5.21       0.000
  CC-storage           STORAGE       0.00  3451.31     0  01:47           0        16.2      -0.199
  JK-storage           STORAGE       0.00  1229.65     0  02:15           0         3.1      -0.506
  
  
  **********************
  Node Surcharge Summary
  **********************
  
  Surcharging occurs when water rises above the top of the highest conduit.
  ---------------------------------------------------------------------
                                               Max. Height   Min. Depth
                                   Hours       Above Crown    Below Rim
  Node                 Type      Surcharged         Meters       Meters
  ---------------------------------------------------------------------
  WS02006109           JUNCTION        1.90          0.362        1.458
  WS02006110           JUNCTION        0.58          0.375        1.475
  WS02006111           JUNCTION        0.01          0.087        1.783
  WS02006112           JUNCTION        0.60          1.680        0.000
  WS02006113           JUNCTION        0.01          0.600        1.330
  WS02006115           JUNCTION        0.01          0.642        1.608
  WS02006116           JUNCTION        0.01          0.000        2.290
  WS02006228           JUNCTION        1.89          0.338        1.862
  WS02006229           JUNCTION        1.91          0.380        2.070
  WS02006230           JUNCTION        0.57          0.246        1.324
  WS02006231           JUNCTION        0.68          0.324        1.206
  WS02006232           JUNCTION        1.97          0.848        0.632
  WS02006234           JUNCTION        1.00          1.240        0.000
  WS02006235           JUNCTION        1.89          1.290        0.000
  WS02006238           JUNCTION        1.94          1.430        0.000
  WS02006239           JUNCTION        1.91          1.290        0.000
  WS02006240           JUNCTION        1.92          0.895        0.495
  WS02006242           JUNCTION        2.00          0.820        0.000
  WS02006243           JUNCTION        1.93          0.770        0.000
  WS02006245           JUNCTION        1.93          0.850        0.000
  WS02006247           JUNCTION        1.95          0.569        0.191
  WS02006248           JUNCTION        1.93          0.380        0.000
  WS02006249           JUNCTION        1.94          0.390        0.000
  WS02006251           JUNCTION        0.73          0.267        0.913
  WS02006252           JUNCTION        2.32          1.100        0.000
  WS02006256           JUNCTION        6.46          2.050        0.000
  YS02001580           JUNCTION        1.04          0.450        0.000
  YS02001583           JUNCTION        1.05          0.379        0.121
  YS02001586           JUNCTION        1.23          0.510        0.000
  YS02001590           JUNCTION        1.34          0.750        0.000
  YS02001593           JUNCTION        1.34          0.789        0.051
  YS02001596           JUNCTION        1.49          1.070        0.000
  YS02001600           JUNCTION        1.62          1.190        0.000
  YS02001601           JUNCTION        1.84          1.440        0.000
  YS02001602           JUNCTION        1.77          1.270        0.000
  YS02001605           JUNCTION        1.74          1.180        0.000
  YS02001607           JUNCTION        1.37          0.680        0.000
  YS02001610           JUNCTION        1.40          0.680        0.000
  YS02001613           JUNCTION        1.36          0.674        0.026
  YS02001616           JUNCTION        1.31          0.610        0.000
  YS02001619           JUNCTION        1.29          0.610        0.000
  YS02001622           JUNCTION        1.29          0.586        0.034
  YS02001625           JUNCTION        1.50          0.780        0.000
  YS02001629           JUNCTION        1.23          0.470        0.000
  YS02001633           JUNCTION        1.53          1.060        0.000
  YS02001641           JUNCTION        1.49          1.100        0.000
  YS02001644           JUNCTION        1.47          0.920        0.000
  YS02001647           JUNCTION        1.23          0.824        0.076
  YS02001649           JUNCTION        1.38          1.050        0.000
  YS02001652           JUNCTION        1.15          1.130        0.000
  YS02001655           JUNCTION        0.89          1.200        0.000
  YS02001658           JUNCTION        0.50          1.176        0.124
  YS02001661           JUNCTION        0.24          0.550        0.840
  YS02001664           JUNCTION        0.07          0.242        1.068
  YS02001745           JUNCTION        0.05          0.126        1.224
  YS02001748           JUNCTION        0.40          1.190        0.000
  YS02001751           JUNCTION        0.72          1.200        0.000
  YS02001754           JUNCTION        1.07          1.150        0.000
  YS02001757           JUNCTION        1.44          1.170        0.040
  YS02001759           JUNCTION        1.36          1.210        0.000
  YS02001762           JUNCTION        1.34          1.150        0.000
  YS02001765           JUNCTION        1.29          1.100        0.000
  YS02001767           JUNCTION        1.24          1.030        0.000
  YS02001770           JUNCTION        1.21          0.920        0.000
  YS02001774           JUNCTION        1.33          1.003        0.047
  YS02001779           JUNCTION        1.03          0.680        0.000
  YS02001783           JUNCTION        0.33          0.522        1.078
  YS02001784           JUNCTION        0.30          0.369        1.121
  YS02001786           JUNCTION        0.21          0.123        1.307
  YS02001882           JUNCTION        0.28          0.830        0.000
  YS02001884           JUNCTION        0.29          0.855        0.015
  YS02001887           JUNCTION        0.32          0.864        0.086
  YS02001890           JUNCTION        0.33          0.760        0.000
  YS02001895           JUNCTION        0.27          0.598        0.152
  YS02001898           JUNCTION        0.26          0.579        0.161
  YS02001901           JUNCTION        0.31          0.712        0.158
  YS02001904           JUNCTION        0.30          0.655        0.195
  YS02001907           JUNCTION        0.51          0.950        0.000
  YS02001910           JUNCTION        0.35          1.072        0.028
  YS02001915           JUNCTION        0.28          0.950        0.050
  YS02001918           JUNCTION        0.21          0.810        0.000
  YS02001920           JUNCTION        0.22          1.140        0.000
  YS02001923           JUNCTION        0.01          0.820        0.000
  YS02001926           JUNCTION        0.01          0.900        0.000
  YS02001929           JUNCTION        0.01          0.780        0.000
  YS02006553           JUNCTION        0.52          0.974        0.216
  YS02006556           JUNCTION        0.43          0.907        0.443
  YS02006558           JUNCTION        0.42          0.896        0.504
  YS02006561           JUNCTION        0.17          0.232        0.918
  YS02163301           JUNCTION        1.51          1.030        0.000
  YS02163601           JUNCTION        1.56          1.080        0.000
  YS02164001           JUNCTION        1.49          1.018        0.082
  
  
  *********************
  Node Flooding Summary
  *********************
  
  Flooding refers to all water that overflows a node, whether it ponds or not.
  --------------------------------------------------------------------------
                                                             Total   Maximum
                                 Maximum   Time of Max       Flood    Ponded
                        Hours       Rate    Occurrence      Volume     Depth
  Node                 Flooded       LPS   days hr:min    10^6 ltr    Meters
  --------------------------------------------------------------------------
  WS02006112              0.01   1547.89      0  00:00       0.047     0.000
  WS02006234              0.01      0.48      0  02:08       0.000     0.000
  WS02006235              0.01      0.76      0  02:08       0.000     0.000
  WS02006238              0.01      0.27      0  02:08       0.000     0.000
  WS02006239              0.01      0.19      0  02:08       0.000     0.000
  WS02006242              0.01     34.26      0  00:15       0.000     0.000
  WS02006243              0.01      0.30      0  02:08       0.000     0.000
  WS02006245              0.01      0.41      0  02:08       0.000     0.000
  WS02006248              0.01     16.06      0  02:08       0.000     0.000
  WS02006249              0.70    118.72      0  02:08       0.170     0.000
  WS02006252              0.01      0.91      0  04:00       0.000     0.000
  WS02006256              0.88    285.69      0  05:00       0.328     0.000
  YS02001580              0.01     28.77      0  01:36       0.000     0.000
  YS02001586              0.87   1165.62      0  01:52       1.425     0.000
  YS02001590              0.01     16.44      0  02:08       0.000     0.000
  YS02001596              0.01      0.24      0  02:08       0.000     0.000
  YS02001600              0.01     47.89      0  02:08       0.001     0.000
  YS02001601              1.14   2365.22      0  01:50       3.117     0.000
  YS02001602              1.03     65.74      0  02:08       0.209     0.000
  YS02001605              0.01      4.24      0  02:08       0.000     0.000
  YS02001607              0.01     16.12      0  02:08       0.000     0.000
  YS02001610              0.90    954.72      0  01:57       1.649     0.000
  YS02001616              0.04      8.70      0  02:08       0.000     0.000
  YS02001619              0.26    897.67      0  01:51       0.498     0.000
  YS02001625              0.89   1505.29      0  02:00       2.628     0.000
  YS02001629              0.32    611.77      0  01:50       0.348     0.000
  YS02001633              0.01      1.47      0  01:47       0.000     0.000
  YS02001641              0.01      0.58      0  02:08       0.000     0.000
  YS02001644              0.43   3114.99      0  01:50       2.167     0.000
  YS02001649              0.01     35.36      0  01:47       0.000     0.000
  YS02001652              0.01     62.67      0  01:41       0.000     0.000
  YS02001655              0.01    239.11      0  01:41       0.000     0.000
  YS02001748              0.01    134.40      0  01:43       0.000     0.000
  YS02001751              0.01     11.16      0  01:43       0.000     0.000
  YS02001754              0.01      0.27      0  02:08       0.000     0.000
  YS02001759              0.01      1.70      0  01:47       0.000     0.000
  YS02001762              0.01      1.75      0  01:47       0.000     0.000
  YS02001765              0.01      0.40      0  01:47       0.000     0.000
  YS02001767              0.01      0.57      0  01:47       0.000     0.000
  YS02001770              0.18   1108.88      0  01:50       0.340     0.000
  YS02001779              0.39    851.63      0  01:55       0.778     0.000
  YS02001882              0.01     11.71      0  02:10       0.000     0.000
  YS02001890              0.05     55.67      0  02:11       0.005     0.000
  YS02001907              0.16   1033.85      0  02:13       0.294     0.000
  YS02001918              0.01    163.70      0  02:12       0.002     0.000
  YS02001920              0.01     51.82      0  02:12       0.000     0.000
  YS02001923              0.01    119.18      0  02:12       0.000     0.000
  YS02001926              0.01    390.67      0  02:12       0.002     0.000
  YS02001929              0.01    202.03      0  02:12       0.001     0.000
  YS02163301              0.01      0.17      0  02:08       0.000     0.000
  YS02163601              0.01     11.18      0  02:08       0.000     0.000
  
  
  **********************
  Storage Volume Summary
  **********************
  
  ------------------------------------------------------------------------------------------------
                         Average    Avg   Evap  Exfil     Maximum    Max    Time of Max    Maximum
                          Volume   Pcnt   Pcnt   Pcnt      Volume   Pcnt     Occurrence    Outflow
  Storage Unit           1000 m³   Full   Loss   Loss     1000 m³   Full    days hr:min        LPS
  ------------------------------------------------------------------------------------------------
  CC-storage               2.452   38.3    0.0    0.0       5.277   82.3       0  02:31    1766.00
  JK-storage               0.067   23.1    0.0    0.0       0.213   73.0       0  02:20    2300.00
  
  
  ***********************
  Outfall Loading Summary
  ***********************
  
  -----------------------------------------------------------
                         Flow       Avg       Max       Total
                         Freq      Flow      Flow      Volume
  Outfall Node           Pcnt       LPS       LPS    10^6 ltr
  -----------------------------------------------------------
  CC-1                  46.36    683.00    683.00       5.804
  CC-2                  37.58    683.00    683.00       5.162
  JK-1                   4.71   1000.00   1000.00       1.069
  JK-2                   5.47   1000.00   1000.00       1.056
  WSC                   99.99    212.29    554.90       5.207
  -----------------------------------------------------------
  System                38.82   3578.29   3920.63      18.297
  
  
  ********************
  Link Flow Summary
  ********************
  
  -----------------------------------------------------------------------------
                                 Maximum  Time of Max   Maximum    Max/    Max/
                                  |Flow|   Occurrence   |Veloc|    Full    Full
  Link                 Type          LPS  days hr:min     m/sec    Flow   Depth
  -----------------------------------------------------------------------------
  1                    CONDUIT    554.90     0  02:39      2.83    0.19    0.30
  WS02003060WS02003069 CONDUIT    552.97     0  02:38      1.64    0.22    0.34
  WS02003066WSF200     CONDUIT    536.51     0  02:38      2.85    0.09    0.22
  WS02003067WS02003066 CONDUIT    536.49     0  02:37      1.21    0.17    0.42
  WS02003069WS02003072 CONDUIT    553.15     0  02:38      1.37    0.27    0.39
  WS02003072WS02003073 CONDUIT    553.10     0  02:39      1.44    1.19    0.37
  WS02004401WS02004402 CONDUIT   1171.33     0  00:01      2.51    1.41    0.86
  WS02004402WS02004403 CONDUIT    884.75     0  00:01      2.16    1.27    0.88
  WS02004403WS02004404 CONDUIT    832.43     0  00:01      1.96    0.60    0.93
  WS02004404WS02004405 CONDUIT    776.45     0  00:01      2.26    7.61    0.96
  WS02004405WS02004406 CONDUIT    711.76     0  00:02      2.15    1.40    0.96
  WS02004406WS02004407 CONDUIT    536.95     0  02:36      1.04    0.24    0.63
  WS02004407WS02004409 CONDUIT    536.84     0  02:36      1.95    0.19    0.48
  WS02004409WS02004410 CONDUIT    536.73     0  02:36      1.31    0.69    0.67
  WS02004410WS02004411 CONDUIT    536.69     0  02:36      1.19    0.73    0.69
  WS02004411WS02004412 CONDUIT    536.63     0  02:37      1.09    0.76    0.69
  WS02004412WS02004413 CONDUIT    536.61     0  02:37      1.11    0.36    0.78
  WS02004413WS02003067 CONDUIT    536.49     0  02:37      1.11    0.23    0.59
  WS02006109WS02006110 CONDUIT   1306.78     0  00:00      3.14    2.51    1.00
  WS02006110WS02006113 CONDUIT    578.68     0  02:41      1.39    0.53    1.00
  WS02006111WS02006112 CONDUIT   2307.30     0  00:00      9.18    1.10    0.91
  WS02006112WS02006115 CONDUIT    899.27     0  00:00      1.16    0.53    1.00
  WS02006113WS02006111 CONDUIT   1176.04     0  00:00      2.50    1.41    1.00
  WS02006115WS02006116 CONDUIT   1098.16     0  00:01      1.72    1.41    1.00
  WS02006116WS02004401 CONDUIT   1677.78     0  00:00      2.92    2.31    0.84
  WS02006228WS02006109 CONDUIT    563.08     0  02:08      1.40    2.46    1.00
  WS02006229WS02006228 CONDUIT    561.38     0  02:08      1.24    1.86    1.00
  WS02006230WS02006229 CONDUIT    561.30     0  02:08      1.46   12.49    1.00
  WS02006231WS02006230 CONDUIT    580.15     0  02:50      1.59    8.80    1.00
  WS02006232WS02006231 CONDUIT    576.05     0  02:40      1.50    1.21    1.00
  WS02006234WS02006232 CONDUIT    575.45     0  02:40      1.50    1.16    1.00
  WS02006235WS02006234 CONDUIT    571.41     0  02:40      1.48    6.03    1.00
  WS02006238WS02006235 CONDUIT    426.10     0  03:41      1.41    0.95    1.00
  WS02006239WS02006238 CONDUIT    427.56     0  03:41      1.11    1.37    1.00
  WS02006240WS02006239 CONDUIT    427.16     0  03:41      1.19    1.34    1.00
  WS02006242WS02006240 CONDUIT    427.02     0  03:41      1.12    1.70    1.00
  WS02006243WS02006242 CONDUIT    426.45     0  03:41      1.21    0.91    1.00
  WS02006245WS02006243 CONDUIT    425.73     0  03:41      1.36    1.26    1.00
  WS02006247WS02006245 CONDUIT    425.28     0  03:41      1.27    3.37    1.00
  WS02006248WS02006247 CONDUIT    424.31     0  03:41      1.30    0.92    1.00
  WS02006249WS02006248 CONDUIT    427.32     0  01:48      1.33    2.34    1.00
  WS02006251WS02006249 CONDUIT    436.30     0  02:08      1.75    1.26    1.00
  WS02006252WS02006251 CONDUIT    409.11     0  02:08     25.84    1.50    1.00
  WS02006256WS02006235 CONDUIT    285.39     0  06:55      4.19    3.02    1.00
  WSF200WS02003060     CONDUIT    536.58     0  02:38      2.06    0.12    0.28
  YS02001580YS02001583 CONDUIT     80.96     0  01:36      0.59    0.31    1.00
  YS02001583YS02001586 CONDUIT    140.81     0  01:35      0.59    0.21    1.00
  YS02001586YS02001590 CONDUIT    339.30     0  02:08      1.26    0.59    1.00
  YS02001590YS02001593 CONDUIT    328.69     0  02:08      1.16    2.06    1.00
  YS02001593YS02001596 CONDUIT    318.02     0  02:20      1.69    0.50    1.00
  YS02001596YS02001600 CONDUIT    318.06     0  01:46      1.25    0.62    1.00
  YS02001600YS02001601 CONDUIT    318.04     0  01:55      1.12    0.55    1.00
  YS02001601YS02001602 CONDUIT    508.75     0  01:35      1.80    1.84    1.00
  YS02001602YS02001605 CONDUIT    509.32     0  01:35      1.80   10.78    1.00
  YS02001605YS02001607 CONDUIT    509.09     0  01:35      1.80    2.79    1.00
  YS02001607YS02001610 CONDUIT    508.35     0  01:35      0.65    0.48    1.00
  YS02001610YS02001613 CONDUIT    618.83     0  01:57      0.79    0.71    1.00
  YS02001613YS02001616 CONDUIT    618.95     0  01:57      0.79    0.53    1.00
  YS02001616YS02001619 CONDUIT    619.58     0  01:57      0.79    1.08    1.00
  YS02001619YS02001622 CONDUIT   1054.26     0  01:58      1.34    1.55    1.00
  YS02001622YS02001625 CONDUIT   1053.87     0  01:58      1.34    0.56    1.00
  YS02001625YS02001629 CONDUIT    934.64     0  01:39      1.19    0.44    1.00
  YS02001629YS02163301 CONDUIT   1048.39     0  01:50      1.33    1.29    1.00
  YS02001633YS02163601 CONDUIT   1397.09     0  01:39      1.78    1.47    1.00
  YS02001641YS02001644 CONDUIT   1392.20     0  01:39      1.77    4.50    1.00
  YS02001644YS02001647 CONDUIT   1790.43     0  01:39      2.29    1.05    1.00
  YS02001647YS02001649 CONDUIT   1811.60     0  01:40      2.37    0.96    1.00
  YS02001649YS02001757 CONDUIT   2025.57     0  01:40      2.62    1.23    1.00
  YS02001652YS02001649 CONDUIT   1634.86     0  01:50      2.08    0.81    1.00
  YS02001655YS02001652 CONDUIT   1634.76     0  01:50      2.08    0.79    1.00
  YS02001658YS02001655 CONDUIT   1635.19     0  01:50      2.08    0.69    1.00
  YS02001661YS02001658 CONDUIT   1634.17     0  01:50      2.31    0.64    1.00
  YS02001664YS02001661 CONDUIT   1634.07     0  01:50      2.31    0.51    1.00
  YS02001745YS02001748 CONDUIT    967.92     0  01:49      2.13    0.37    1.00
  YS02001748YS02001751 CONDUIT    968.59     0  01:49      1.66    0.49    1.00
  YS02001751YS02001754 CONDUIT    969.48     0  01:49      1.41    0.47    1.00
  YS02001754YS02001757 CONDUIT    970.47     0  01:49      1.24    0.39    1.00
  YS02001757CaochengTiaoxuchi CONDUIT   3451.31     0  01:47      4.39    1.49    1.00
  YS02001759YS02001757 CONDUIT   1481.03     0  01:48      1.89    1.05    1.00
  YS02001762YS02001759 CONDUIT    774.86     0  01:43      0.99    0.89    1.00
  YS02001765YS02001762 CONDUIT    774.74     0  01:43      0.99    0.73    1.00
  YS02001767YS02001765 CONDUIT    775.19     0  01:43      0.99    0.98    1.00
  YS02001770YS02001767 CONDUIT    774.92     0  01:43      0.99    3.07    1.00
  YS02001774YS02001770 CONDUIT    852.46     0  01:55      1.09    0.54    1.00
  YS02001779YS02001774 CONDUIT    852.02     0  01:55      1.08    0.43    1.00
  YS02001783YS02001784 CONDUIT   1152.27     0  02:13      2.29    1.59    1.00
  YS02001784YS02001785 CONDUIT   1153.38     0  02:12      2.29    2.68    1.00
  YS02001786YS02001788 CONDUIT   1154.03     0  02:12      2.47    2.22    0.89
  YS02001788YS02001790 CONDUIT   1169.60     0  02:14      2.71    0.86    0.84
  YS02001790YS02001791 CONDUIT   1281.85     0  02:12      3.41    1.39    0.70
  YS02001791YS02001793 CONDUIT   1230.92     0  02:14      6.74    0.53    0.44
  YS02001793JiankangQianchi CONDUIT   1229.65     0  02:15      2.47    0.10    0.64
  YS02001882YS02001884 CONDUIT     51.60     0  02:09      0.11    0.06    1.00
  YS02001884YS02001887 CONDUIT     76.00     0  02:09      0.10    0.10    1.00
  YS02001887YS02001890 CONDUIT    536.51     0  02:13      0.68    0.92    1.00
  YS02001890YS02001895 CONDUIT    507.27     0  02:14      0.65    0.24    1.00
  YS02001895YS02001898 CONDUIT    507.79     0  02:14      0.65    0.88    1.00
  YS02001898YS02001901 CONDUIT    508.04     0  02:14      0.65    0.33    1.00
  YS02001901YS02001904 CONDUIT    508.04     0  02:14      0.65    0.79    1.00
  YS02001904YS02001907 CONDUIT    507.99     0  02:14      0.65    0.18    1.00
  YS02001907YS02006553 CONDUIT    802.55     0  02:23      0.89    0.94    1.00
  YS02001910YS02001907 CONDUIT   1005.74     0  02:13      1.28    0.57    1.00
  YS02001915YS02001910 CONDUIT   1005.28     0  02:13      1.28    0.50    1.00
  YS02001918YS02001915 CONDUIT    445.45     0  02:13      0.57    0.25    1.00
  YS02001920YS02001918 CONDUIT    443.98     0  02:13      0.65    0.43    1.00
  YS02001923YS02001920 CONDUIT    440.46     0  02:13      0.72    0.20    1.00
  YS02001926YS02001923 CONDUIT    420.49     0  02:12      0.98    0.60    1.00
  YS02001929YS02001926 CONDUIT    390.70     0  02:12      1.15    0.19    1.00
  YS02006553YS02006556 CONDUIT    802.57     0  02:23      1.02    0.69    1.00
  YS02006556YS02006558 CONDUIT    804.42     0  02:23      1.02    0.64    1.00
  YS02006558YS02006561 CONDUIT   1169.69     0  02:11      4.14    2.59    1.00
  YS02006561YS02001783 CONDUIT   1152.45     0  02:13      2.29    0.60    1.00
  YS02163301YS02001633 CONDUIT   1048.12     0  01:50      1.33    0.99    1.00
  YS02163601YS02164001 CONDUIT   1396.08     0  01:39      1.78    1.24    1.00
  YS02164001YS02001641 CONDUIT   1393.41     0  01:39      1.77    1.90    1.00
  CC-R1                PUMP       683.00     0  00:30              1.00
  CC-R2                PUMP       683.00     0  00:05              1.00
  CC-S1                PUMP       200.00     0  00:05              1.00
  CC-S2                PUMP       200.00     0  00:10              1.00
  JK-R1                PUMP      1000.00     0  01:50              1.00
  JK-R2                PUMP      1000.00     0  00:05              1.00
  JK-S                 PUMP       300.00     0  00:15              1.00
  
  
  ***************************
  Flow Classification Summary
  ***************************
  
  -------------------------------------------------------------------------------------
                      Adjusted    ---------- Fraction of Time in Flow Class ---------- 
                       /Actual         Up    Down  Sub   Sup   Up    Down  Norm  Inlet 
  Conduit               Length    Dry  Dry   Dry   Crit  Crit  Crit  Crit  Ltd   Ctrl  
  -------------------------------------------------------------------------------------
  1                       1.00   0.00  0.00  0.00  0.00  1.00  0.00  0.00  0.31  0.00
  WS02003060WS02003069    1.00   0.00  0.00  0.00  0.96  0.04  0.00  0.00  0.67  0.00
  WS02003066WSF200        1.00   0.03  0.00  0.00  0.00  0.97  0.00  0.00  0.87  0.00
  WS02003067WS02003066    1.00   0.02  0.01  0.00  0.97  0.00  0.00  0.00  0.00  0.00
  WS02003069WS02003072    1.00   0.00  0.00  0.00  0.99  0.01  0.00  0.00  0.73  0.00
  WS02003072WS02003073    1.00   0.00  0.00  0.00  0.00  0.00  0.00  1.00  0.00  0.00
  WS02004401WS02004402    1.00   0.00  0.00  0.00  1.00  0.00  0.00  0.00  0.00  0.00
  WS02004402WS02004403    1.00   0.00  0.00  0.00  1.00  0.00  0.00  0.00  0.00  0.00
  WS02004403WS02004404    1.00   0.00  0.00  0.00  1.00  0.00  0.00  0.00  0.00  0.00
  WS02004404WS02004405    1.00   0.00  0.00  0.00  1.00  0.00  0.00  0.00  0.01  0.00
  WS02004405WS02004406    1.00   0.00  0.00  0.00  1.00  0.00  0.00  0.00  0.00  0.00
  WS02004406WS02004407    1.00   0.00  0.00  0.00  1.00  0.00  0.00  0.00  0.00  0.00
  WS02004407WS02004409    1.00   0.00  0.00  0.00  0.99  0.01  0.00  0.00  0.99  0.00
  WS02004409WS02004410    1.00   0.00  0.00  0.00  0.99  0.00  0.00  0.00  0.00  0.00
  WS02004410WS02004411    1.00   0.01  0.00  0.00  0.99  0.00  0.00  0.00  0.00  0.00
  WS02004411WS02004412    1.00   0.01  0.00  0.00  0.99  0.00  0.00  0.00  0.00  0.00
  WS02004412WS02004413    1.00   0.01  0.00  0.00  0.99  0.00  0.00  0.00  0.00  0.00
  WS02004413WS02003067    1.00   0.01  0.01  0.00  0.00  0.00  0.98  0.00  0.00  0.00
  WS02006109WS02006110    1.00   0.00  0.00  0.00  1.00  0.00  0.00  0.00  0.00  0.00
  WS02006110WS02006113    1.00   0.00  0.00  0.00  1.00  0.00  0.00  0.00  0.00  0.00
  WS02006111WS02006112    1.00   0.00  0.00  0.00  1.00  0.00  0.00  0.00  1.00  0.00
  WS02006112WS02006115    1.00   0.00  0.00  0.00  1.00  0.00  0.00  0.00  0.00  0.00
  WS02006113WS02006111    1.00   0.00  0.00  0.00  0.01  0.99  0.00  0.00  0.14  0.00
  WS02006115WS02006116    1.00   0.00  0.00  0.00  1.00  0.00  0.00  0.00  0.00  0.00
  WS02006116WS02004401    1.00   0.00  0.00  0.00  1.00  0.00  0.00  0.00  0.00  0.00
  WS02006228WS02006109    1.00   0.00  0.00  0.00  1.00  0.00  0.00  0.00  0.00  0.00
  WS02006229WS02006228    1.00   0.00  0.00  0.00  1.00  0.00  0.00  0.00  0.00  0.00
  WS02006230WS02006229    1.00   0.00  0.00  0.00  1.00  0.00  0.00  0.00  0.04  0.00
  WS02006231WS02006230    1.00   0.00  0.00  0.00  0.26  0.00  0.73  0.00  0.00  0.00
  WS02006232WS02006231    1.00   0.00  0.00  0.00  0.99  0.00  0.01  0.00  0.00  0.00
  WS02006234WS02006232    1.00   0.00  0.00  0.00  0.99  0.00  0.00  0.00  0.05  0.00
  WS02006235WS02006234    1.00   0.02  0.00  0.00  0.91  0.00  0.07  0.00  0.00  0.00
  WS02006238WS02006235    1.00   0.01  0.00  0.00  0.98  0.00  0.00  0.00  0.01  0.00
  WS02006239WS02006238    1.00   0.02  0.00  0.00  0.98  0.00  0.00  0.00  0.15  0.00
  WS02006240WS02006239    1.00   0.02  0.00  0.00  0.69  0.00  0.00  0.30  0.05  0.00
  WS02006242WS02006240    1.00   0.01  0.00  0.00  0.98  0.00  0.01  0.00  0.00  0.00
  WS02006243WS02006242    1.00   0.01  0.00  0.00  0.98  0.00  0.00  0.01  0.57  0.00
  WS02006245WS02006243    1.00   0.01  0.00  0.00  0.81  0.00  0.00  0.17  0.00  0.00
  WS02006247WS02006245    1.00   0.01  0.00  0.00  0.96  0.00  0.00  0.03  0.00  0.00
  WS02006248WS02006247    1.00   0.01  0.00  0.00  0.98  0.00  0.00  0.01  0.50  0.00
  WS02006249WS02006248    1.00   0.00  0.01  0.00  0.47  0.00  0.52  0.00  0.00  0.00
  WS02006251WS02006249    1.00   0.00  0.00  0.00  0.99  0.01  0.00  0.00  0.53  0.00
  WS02006252WS02006251    1.00   0.01  0.35  0.00  0.09  0.00  0.54  0.00  0.00  0.00
  WS02006256WS02006235    1.00   0.01  0.00  0.00  0.97  0.02  0.00  0.00  0.01  0.00
  WSF200WS02003060        1.00   0.00  0.03  0.00  0.44  0.53  0.00  0.00  0.63  0.00
  YS02001580YS02001583    1.00   0.20  0.55  0.00  0.26  0.00  0.00  0.00  0.64  0.00
  YS02001583YS02001586    1.00   0.47  0.22  0.00  0.31  0.00  0.00  0.00  0.64  0.00
  YS02001586YS02001590    1.00   0.13  0.00  0.00  0.43  0.03  0.00  0.41  0.29  0.00
  YS02001590YS02001593    1.00   0.13  0.00  0.00  0.19  0.00  0.68  0.00  0.00  0.00
  YS02001593YS02001596    1.00   0.13  0.00  0.00  0.20  0.01  0.00  0.66  0.01  0.00
  YS02001596YS02001600    1.00   0.13  0.00  0.00  0.24  0.01  0.00  0.62  0.03  0.00
  YS02001600YS02001601    1.00   0.13  0.01  0.00  0.87  0.00  0.00  0.00  0.58  0.00
  YS02001601YS02001602    1.00   0.13  0.01  0.00  0.87  0.00  0.00  0.00  0.00  0.00
  YS02001602YS02001605    1.00   0.13  0.00  0.00  0.87  0.00  0.00  0.00  0.00  0.00
  YS02001605YS02001607    1.00   0.13  0.00  0.00  0.87  0.00  0.00  0.00  0.00  0.00
  YS02001607YS02001610    1.00   0.13  0.00  0.00  0.87  0.00  0.00  0.00  0.01  0.00
  YS02001610YS02001613    1.00   0.13  0.00  0.00  0.87  0.00  0.00  0.00  0.00  0.00
  YS02001613YS02001616    1.00   0.13  0.00  0.00  0.87  0.00  0.00  0.00  0.00  0.00
  YS02001616YS02001619    1.00   0.13  0.00  0.00  0.87  0.00  0.00  0.00  0.00  0.00
  YS02001619YS02001622    1.00   0.13  0.00  0.00  0.87  0.00  0.00  0.00  0.32  0.00
  YS02001622YS02001625    1.00   0.13  0.00  0.00  0.87  0.00  0.00  0.00  0.02  0.00
  YS02001625YS02001629    1.00   0.13  0.03  0.00  0.22  0.00  0.62  0.00  0.00  0.00
  YS02001629YS02163301    1.00   0.14  0.01  0.00  0.85  0.00  0.00  0.00  0.00  0.00
  YS02001633YS02163601    1.00   0.00  0.01  0.00  0.99  0.00  0.00  0.00  0.14  0.00
  YS02001641YS02001644    1.00   0.00  0.01  0.00  0.99  0.00  0.00  0.00  0.00  0.00
  YS02001644YS02001647    1.00   0.00  0.15  0.00  0.85  0.00  0.00  0.00  0.00  0.00
  YS02001647YS02001649    1.00   0.00  0.15  0.00  0.64  0.21  0.00  0.00  0.57  0.00
  YS02001649YS02001757    1.00   0.00  0.00  0.00  0.80  0.20  0.00  0.00  0.43  0.00
  YS02001652YS02001649    1.00   0.00  0.00  0.00  0.98  0.02  0.00  0.00  0.70  0.00
  YS02001655YS02001652    1.00   0.00  0.00  0.00  0.25  0.01  0.00  0.75  0.03  0.00
  YS02001658YS02001655    1.00   0.00  0.13  0.00  0.75  0.12  0.00  0.00  0.61  0.00
  YS02001661YS02001658    1.00   0.13  0.00  0.00  0.61  0.25  0.00  0.00  0.65  0.00
  YS02001664YS02001661    1.00   0.13  0.00  0.00  0.79  0.09  0.00  0.00  0.82  0.00
  YS02001745YS02001748    1.00   0.00  0.00  0.00  0.18  0.00  0.00  0.82  0.05  0.00
  YS02001748YS02001751    1.00   0.00  0.00  0.00  0.90  0.10  0.00  0.00  0.73  0.00
  YS02001751YS02001754    1.00   0.00  0.00  0.00  0.23  0.01  0.00  0.76  0.02  0.00
  YS02001754YS02001757    1.00   0.00  0.00  0.00  1.00  0.00  0.00  0.00  0.76  0.00
  YS02001757CaochengTiaoxuchi    1.00   0.00  0.00  0.00  0.97  0.03  0.00  0.00  0.70  0.00
  YS02001759YS02001757    1.00   0.00  0.00  0.00  0.98  0.02  0.00  0.00  0.65  0.00
  YS02001762YS02001759    1.00   0.00  0.00  0.00  1.00  0.00  0.00  0.00  0.02  0.00
  YS02001765YS02001762    1.00   0.00  0.00  0.00  1.00  0.00  0.00  0.00  0.67  0.00
  YS02001767YS02001765    1.00   0.00  0.00  0.00  1.00  0.00  0.00  0.00  0.00  0.00
  YS02001770YS02001767    1.00   0.00  0.00  0.00  1.00  0.00  0.00  0.00  0.00  0.00
  YS02001774YS02001770    1.00   0.00  0.13  0.00  0.62  0.00  0.25  0.00  0.01  0.00
  YS02001779YS02001774    1.00   0.00  0.00  0.00  1.00  0.00  0.00  0.00  0.72  0.00
  YS02001783YS02001784    1.00   0.00  0.19  0.00  0.81  0.00  0.00  0.00  0.58  0.00
  YS02001784YS02001785    1.00   0.00  0.00  0.00  1.00  0.00  0.00  0.00  0.18  0.00
  YS02001786YS02001788    1.00   0.00  0.00  0.00  0.80  0.20  0.00  0.00  0.00  0.00
  YS02001788YS02001790    1.00   0.00  0.00  0.00  0.21  0.79  0.00  0.00  0.84  0.00
  YS02001790YS02001791    1.00   0.00  0.00  0.00  0.01  0.99  0.00  0.00  0.15  0.00
  YS02001791YS02001793    1.00   0.00  0.00  0.00  0.00  1.00  0.00  0.00  0.00  0.00
  YS02001793JiankangQianchi    1.00   0.00  0.00  0.00  0.99  0.01  0.00  0.00  0.98  0.00
  YS02001882YS02001884    1.00   0.16  0.01  0.00  0.83  0.00  0.00  0.00  0.00  0.00
  YS02001884YS02001887    1.00   0.06  0.05  0.00  0.89  0.00  0.00  0.00  0.00  0.00
  YS02001887YS02001890    1.00   0.00  0.00  0.00  0.97  0.00  0.03  0.00  0.00  0.00
  YS02001890YS02001895    1.00   0.00  0.17  0.00  0.83  0.00  0.00  0.00  0.00  0.00
  YS02001895YS02001898    1.00   0.17  0.00  0.00  0.81  0.00  0.02  0.00  0.00  0.00
  YS02001898YS02001901    1.00   0.17  0.00  0.00  0.82  0.00  0.00  0.00  0.01  0.00
  YS02001901YS02001904    1.00   0.17  0.00  0.00  0.83  0.00  0.00  0.00  0.00  0.00
  YS02001904YS02001907    1.00   0.00  0.17  0.00  0.83  0.00  0.00  0.00  0.00  0.00
  YS02001907YS02006553    1.00   0.00  0.02  0.00  0.98  0.00  0.00  0.00  0.00  0.00
  YS02001910YS02001907    1.00   0.00  0.00  0.00  0.97  0.00  0.00  0.03  0.12  0.00
  YS02001915YS02001910    1.00   0.00  0.00  0.00  0.96  0.04  0.00  0.00  0.17  0.00
  YS02001918YS02001915    1.00   0.00  0.00  0.00  0.98  0.02  0.00  0.00  0.79  0.00
  YS02001920YS02001918    1.00   0.00  0.00  0.00  1.00  0.00  0.00  0.00  0.01  0.00
  YS02001923YS02001920    1.00   0.00  0.00  0.00  1.00  0.00  0.00  0.00  0.95  0.00
  YS02001926YS02001923    1.00   0.00  0.07  0.00  0.03  0.00  0.89  0.00  0.00  0.00
  YS02001929YS02001926    1.00   0.00  0.13  0.00  0.87  0.00  0.00  0.00  0.84  0.00
  YS02006553YS02006556    1.00   0.01  0.00  0.00  0.99  0.00  0.00  0.00  0.03  0.00
  YS02006556YS02006558    1.00   0.00  0.00  0.00  1.00  0.00  0.00  0.00  0.00  0.00
  YS02006558YS02006561    1.00   0.19  0.00  0.00  0.03  0.78  0.00  0.00  0.18  0.00
  YS02006561YS02001783    1.00   0.19  0.00  0.00  0.06  0.75  0.00  0.00  0.72  0.00
  YS02163301YS02001633    1.00   0.00  0.14  0.00  0.86  0.00  0.00  0.00  0.00  0.00
  YS02163601YS02164001    1.00   0.00  0.08  0.00  0.92  0.00  0.00  0.00  0.00  0.00
  YS02164001YS02001641    1.00   0.01  0.07  0.00  0.92  0.00  0.00  0.00  0.05  0.00
  
  
  *************************
  Conduit Surcharge Summary
  *************************
  
  ----------------------------------------------------------------------------
                                                           Hours        Hours 
                         --------- Hours Full --------   Above Full   Capacity
  Conduit                Both Ends  Upstream  Dnstream   Normal Flow   Limited
  ----------------------------------------------------------------------------
  WS02003072WS02003073        0.01      0.01      0.01      1.04         0.01
  WS02004401WS02004402        0.01      0.01      0.01      0.01         0.01
  WS02004402WS02004403        0.01      0.01      0.01      0.01         0.01
  WS02004404WS02004405        0.01      0.01      0.01      3.22         0.01
  WS02004405WS02004406        0.01      0.01      0.01      0.50         0.01
  WS02006109WS02006110        0.57      0.58      1.95      0.67         0.01
  WS02006110WS02006113        0.01      0.01      1.94      0.01         0.01
  WS02006111WS02006112        0.01      0.01      2.14      0.01         0.01
  WS02006112WS02006115        0.01      0.01      0.59      0.01         0.01
  WS02006113WS02006111        0.01      0.01      0.01      0.01         0.01
  WS02006115WS02006116        0.01      0.01      0.01      0.01         0.01
  WS02006116WS02004401        0.01      0.01      0.01      0.01         0.01
  WS02006228WS02006109        1.90      1.95      1.90      2.55         1.90
  WS02006229WS02006228        1.89      1.91      1.89      2.26         1.89
  WS02006230WS02006229        2.03      2.19      2.03      3.45         2.03
  WS02006231WS02006230        0.57      0.57      0.71      3.24         0.01
  WS02006232WS02006231        0.67      0.67      1.97      0.73         0.01
  WS02006234WS02006232        1.84      1.84      1.97      0.72         0.70
  WS02006235WS02006234        1.00      1.00      1.88      3.04         0.01
  WS02006238WS02006235        1.90      1.90      1.98      0.01         0.01
  WS02006239WS02006238        1.93      1.97      1.94      2.19         1.75
  WS02006240WS02006239        1.91      1.94      1.91      2.18         1.69
  WS02006242WS02006240        1.92      1.92      2.03      2.37         0.01
  WS02006243WS02006242        1.94      1.94      2.00      0.01         0.03
  WS02006245WS02006243        1.93      1.94      1.93      1.60         1.42
  WS02006247WS02006245        1.93      1.96      1.93      2.95         1.92
  WS02006248WS02006247        1.94      1.94      1.95      0.01         0.04
  WS02006249WS02006248        1.93      1.93      1.94      2.88         0.01
  WS02006251WS02006249        1.94      1.96      1.94      2.23         1.88
  WS02006252WS02006251        2.27      2.28      2.31      2.28         0.01
  WS02006256WS02006235        3.09      3.13      6.36      0.92         0.01
  YS02001580YS02001583        1.04      1.04      1.12      0.01         0.01
  YS02001583YS02001586        1.05      1.05      1.23      0.01         0.01
  YS02001586YS02001590        1.25      1.25      1.34      0.01         0.01
  YS02001590YS02001593        1.34      1.34      1.37      1.40         0.01
  YS02001593YS02001596        1.36      1.36      1.49      0.01         0.01
  YS02001596YS02001600        1.54      1.54      1.62      0.01         0.01
  YS02001600YS02001601        1.65      1.65      1.84      0.01         0.01
  YS02001601YS02001602        1.77      1.77      1.86      1.61         0.01
  YS02001602YS02001605        1.74      1.74      1.77      2.42         0.01
  YS02001605YS02001607        1.71      1.74      1.71      1.79         1.69
  YS02001607YS02001610        1.37      1.37      1.40      0.01         0.01
  YS02001610YS02001613        1.36      1.36      1.40      0.01         0.01
  YS02001613YS02001616        1.31      1.31      1.36      0.01         0.01
  YS02001616YS02001619        1.29      1.29      1.31      0.24         0.24
  YS02001619YS02001622        1.29      1.29      1.29      1.26         1.12
  YS02001622YS02001625        1.29      1.29      1.50      0.01         0.01
  YS02001625YS02001629        1.23      1.23      1.50      0.01         0.01
  YS02001629YS02163301        1.50      1.50      1.51      0.19         0.14
  YS02001633YS02163601        1.53      1.53      1.56      0.19         0.26
  YS02001641YS02001644        1.47      1.49      1.47      1.88         1.44
  YS02001644YS02001647        1.23      1.23      1.47      0.04         0.01
  YS02001647YS02001649        1.23      1.23      1.38      0.01         0.01
  YS02001649YS02001757        1.38      1.38      1.44      0.13         0.07
  YS02001652YS02001649        1.18      1.18      1.38      0.01         0.01
  YS02001655YS02001652        0.89      0.89      1.15      0.01         0.01
  YS02001658YS02001655        0.50      0.50      0.89      0.01         0.01
  YS02001661YS02001658        0.24      0.24      0.50      0.01         0.01
  YS02001664YS02001661        0.07      0.07      0.29      0.01         0.01
  YS02001745YS02001748        0.05      0.05      0.40      0.01         0.01
  YS02001748YS02001751        0.46      0.46      0.72      0.01         0.01
  YS02001751YS02001754        0.72      0.72      1.07      0.01         0.01
  YS02001754YS02001757        1.11      1.11      1.44      0.01         0.01
  YS02001757CaochengTiaoxuchi        1.37      1.44      1.93      0.58         0.46
  YS02001759YS02001757        1.37      1.37      1.44      0.08         0.09
  YS02001762YS02001759        1.34      1.34      1.37      0.01         0.02
  YS02001765YS02001762        1.29      1.29      1.34      0.01         0.01
  YS02001767YS02001765        1.24      1.24      1.29      0.01         0.02
  YS02001770YS02001767        1.24      1.24      1.24      0.77         0.75
  YS02001774YS02001770        1.21      1.21      1.33      0.01         0.01
  YS02001779YS02001774        1.03      1.03      1.33      0.01         0.01
  YS02001783YS02001784        0.30      0.33      0.30      0.45         0.30
  YS02001784YS02001785        0.21      0.30      0.21      0.63         0.21
  YS02001786YS02001788        0.01      0.21      0.01      0.54         0.01
  YS02001790YS02001791        0.01      0.01      0.01      0.29         0.01
  YS02001793JiankangQianchi        0.01      0.01      6.73      0.01         0.01
  YS02001882YS02001884        0.28      0.28      0.29      0.01         0.01
  YS02001884YS02001887        0.31      0.31      0.32      0.01         0.01
  YS02001887YS02001890        0.33      0.33      0.34      0.01         0.01
  YS02001890YS02001895        0.27      0.27      0.35      0.01         0.01
  YS02001895YS02001898        0.26      0.26      0.27      0.01         0.01
  YS02001898YS02001901        0.27      0.27      0.31      0.01         0.01
  YS02001901YS02001904        0.30      0.30      0.31      0.01         0.01
  YS02001904YS02001907        0.30      0.30      0.53      0.01         0.01
  YS02001907YS02006553        0.64      0.64      0.71      0.01         0.01
  YS02001910YS02001907        0.35      0.35      0.51      0.01         0.01
  YS02001915YS02001910        0.28      0.28      0.35      0.01         0.01
  YS02001918YS02001915        0.21      0.21      0.28      0.01         0.01
  YS02001920YS02001918        0.21      0.21      0.22      0.01         0.01
  YS02001923YS02001920        0.17      0.17      0.22      0.01         0.01
  YS02001926YS02001923        0.01      0.01      0.01      0.01         0.01
  YS02001929YS02001926        0.01      0.01      0.01      0.01         0.01
  YS02006553YS02006556        0.43      0.43      0.52      0.01         0.01
  YS02006556YS02006558        0.48      0.48      0.54      0.01         0.01
  YS02006558YS02006561        0.24      0.42      0.24      0.59         0.24
  YS02006561YS02001783        0.17      0.17      0.33      0.01         0.01
  YS02163301YS02001633        1.51      1.51      1.54      0.01         0.01
  YS02163601YS02164001        1.49      1.49      1.56      0.10         0.01
  YS02164001YS02001641        1.49      1.49      1.49      1.02         0.93
  
  
  ***************
  Pumping Summary
  ***************
  
  ---------------------------------------------------------------------------------------------------------
                                                  Min       Avg       Max     Total     Power    % Time Off
                        Percent   Number of      Flow      Flow      Flow    Volume     Usage    Pump Curve
  Pump                 Utilized   Start-Ups       LPS       LPS       LPS  10^6 ltr     Kw-hr    Low   High
  ---------------------------------------------------------------------------------------------------------
  CC-R1                   29.60          22      0.00    683.00    683.00     5.823    109.33    0.0   25.4
  CC-R2                   26.36          22      0.00    683.00    683.00     5.185     98.24    0.0   20.9
  CC-S1                   37.34          20      0.00    200.00    200.00     2.151     11.89    0.0    0.0
  CC-S2                   29.76          16      0.00    200.00    200.00     1.714      9.00    0.0    0.0
  JK-R1                    3.72          15      0.00   1000.00   1000.00     1.071     10.67    0.0    0.0
  JK-R2                    3.69          17      0.00   1000.00   1000.00     1.062      8.35    0.0    0.0
  JK-S                    10.96          42      0.00    300.00    300.00     0.947     16.27    0.0    0.0
  

  Analysis begun on:  Fri Aug  4 07:05:00 2023
  Analysis ended on:  Fri Aug  4 07:05:04 2023
  Total elapsed time: 00:00:04