
  OWA STORM WATER MANAGEMENT MODEL - VERSION v5.2.3 (OWA 2023-06-06)
  ------------------------------------------------------------

  WARNING 04: minimum elevation drop used for Conduit WS02004404WS02004405
  WARNING 03: negative offset ignored for Link YS02001904YS02001907
  
  ****************
  Analysis Options
  ****************
  Flow Units ............... LPS
  Process Models:
    Rainfall/Runoff ........ YES
    RDII ................... NO
    Snowmelt ............... NO
    Groundwater ............ NO
    Flow Routing ........... YES
    Ponding Allowed ........ NO
    Water Quality .......... NO
  Infiltration Method ...... HORTON
  Flow Routing Method ...... DYNWAVE
  Surcharge Method ......... EXTRAN
  Starting Date ............ 08/28/2015 08:00:00
  Ending Date .............. 08/28/2015 16:00:00
  Antecedent Dry Days ...... 8.0
  Report Time Step ......... 00:01:00
  Wet Time Step ............ 00:01:00
  Dry Time Step ............ 00:01:00
  Routing Time Step ........ 30.00 sec
  Variable Time Step ....... YES
  Maximum Trials ........... 8
  Number of Threads ........ 2
  Head Tolerance ........... 0.001500 m
  
  
  **************************        Volume         Depth
  Runoff Quantity Continuity     hectare-m            mm
  **************************     ---------       -------
  Initial LID Storage ......         0.049         1.488
  Total Precipitation ......         1.436        43.293
  Evaporation Loss .........         0.000         0.000
  Infiltration Loss ........         0.073         2.213
  Surface Runoff ...........         1.035        31.188
  Final Storage ............         0.378        11.404
  Continuity Error (%) .....        -0.056
  
  
  **************************        Volume        Volume
  Flow Routing Continuity        hectare-m      10^6 ltr
  **************************     ---------     ---------
  Dry Weather Inflow .......         0.025         0.251
  Wet Weather Inflow .......         1.035        10.347
  Groundwater Inflow .......         0.000         0.000
  RDII Inflow ..............         0.000         0.000
  External Inflow ..........         0.083         0.834
  External Outflow .........         1.128        11.283
  Flooding Loss ............         0.107         1.071
  Evaporation Loss .........         0.000         0.000
  Exfiltration Loss ........         0.000         0.000
  Initial Stored Volume ....         0.243         2.431
  Final Stored Volume ......         0.182         1.816
  Continuity Error (%) .....        -2.223
  
  
  *************************
  Highest Continuity Errors
  *************************
  Node YS02001583 (-5.25%)
  Node YS02001884 (5.18%)
  Node WS02006256 (-4.22%)
  Node YS02001774 (1.89%)
  Node WS02006111 (-1.04%)
  
  
  ***************************
  Time-Step Critical Elements
  ***************************
  Link WS02006252WS02006251 (36.04%)
  Link WS02006238WS02006235 (22.80%)
  Link WS02004404WS02004405 (15.96%)
  Link WS02003066WSF200 (6.37%)
  Link WS02006235WS02006234 (5.12%)
  
  
  ********************************
  Highest Flow Instability Indexes
  ********************************
  Link WS02006113WS02006111 (37)
  Link WS02006256WS02006235 (17)
  Link WS02004404WS02004405 (17)
  Link WS02006238WS02006235 (16)
  Link WS02006111WS02006112 (16)
  
  
  *********************************
  Most Frequent Nonconverging Nodes
  *********************************
  Node CC-1 (11.59%)
  Node CC-2 (11.59%)
  Node JK-1 (11.59%)
  Node JK-2 (11.59%)
  Node WSC (11.59%)
  
  
  *************************
  Routing Time Step Summary
  *************************
  Minimum Time Step           :     0.00 sec
  Average Time Step           :     2.47 sec
  Maximum Time Step           :    30.00 sec
  % of Time in Steady State   :     0.00
  Average Iterations per Step :     3.11
  % of Steps Not Converging   :    11.59
  Time Step Frequencies       :
     30.000 - 13.228 sec      :     0.01 %
     13.228 -  5.833 sec      :    13.24 %
      5.833 -  2.572 sec      :    24.86 %
      2.572 -  1.134 sec      :    19.62 %
      1.134 -  0.500 sec      :    42.27 %
  
  
  ***************************
  Subcatchment Runoff Summary
  ***************************
  
  ------------------------------------------------------------------------------------------------------------------------------
                            Total      Total      Total      Total     Imperv       Perv      Total       Total     Peak  Runoff
                           Precip      Runon       Evap      Infil     Runoff     Runoff     Runoff      Runoff   Runoff   Coeff
  Subcatchment                 mm         mm         mm         mm         mm         mm         mm    10^6 ltr      LPS
  ------------------------------------------------------------------------------------------------------------------------------
  sub60                     43.29       0.00       0.00       1.32      28.47       2.69      31.16        0.41   271.40   0.720
  sub61                     43.29       0.00       0.00       2.03      28.45       3.99      32.44        0.60   394.52   0.749
  sub62                     43.29       0.00       0.00       0.90      30.32       1.83      32.15        0.88   541.41   0.743
  sub63                     43.29       0.00       0.00       3.72      24.37       6.56      30.92        0.70   441.20   0.714
  sub64                     43.29       0.00       0.00       1.79      27.74       3.27      31.01        0.74   439.82   0.716
  sub65                     43.29       0.00       0.00       1.64      29.93       2.99      32.92        0.91   513.24   0.760
  sub66                     43.29       0.00       0.00       4.33      23.54       5.62      29.16        1.36   653.86   0.674
  sub67                     43.29       0.00       0.00       0.89      31.10       1.90      32.99        0.61   423.62   0.762
  sub68                     43.29       0.00       0.00       1.56      27.46       3.06      30.52        0.84   536.66   0.705
  sub69                     43.29       0.00       0.00       1.41      29.08       3.74      32.82        1.22   665.99   0.758
  sub70                     43.29       0.00       0.00       4.72      23.28       7.33      30.62        0.88   379.01   0.707
  sub71                     43.29       0.00       0.00       0.83      27.54       1.65      29.19        0.76   446.81   0.674
  sub72                     43.29       0.00       0.00       0.79      29.74       1.53      31.27        0.43   228.98   0.722
  

  ***********************
  LID Performance Summary
  ***********************

  --------------------------------------------------------------------------------------------------------------------
                                         Total      Evap     Infil   Surface    Drain    Initial     Final  Continuity
                                        Inflow      Loss      Loss   Outflow   Outflow   Storage   Storage       Error
  Subcatchment      LID Control             mm        mm        mm        mm        mm        mm        mm           %
  --------------------------------------------------------------------------------------------------------------------
  sub60             GreenRoof            43.29      0.00      0.00      0.00      0.00      7.05     50.43       -0.17
  sub61             GreenRoof            43.29      0.00      0.00      0.00      0.00      7.05     50.43       -0.17
  sub62             GreenRoof            43.29      0.00      0.00      0.00      0.00      7.05     50.43       -0.17
  sub63             GreenRoof            43.29      0.00      0.00      0.00      0.00      7.05     50.43       -0.17
  sub64             GreenRoof            43.29      0.00      0.00      0.00      0.00      7.05     50.43       -0.17
  sub65             GreenRoof            43.29      0.00      0.00      0.00      0.00      7.05     50.43       -0.17
  sub66             GreenRoof            43.29      0.00      0.00      0.00      0.00      7.05     50.43       -0.17
  sub67             GreenRoof            43.29      0.00      0.00      0.00      0.00      7.05     50.43       -0.17
  sub68             GreenRoof            43.29      0.00      0.00      0.00      0.00      7.05     50.43       -0.17
  sub69             GreenRoof            43.29      0.00      0.00      0.00      0.00      7.05     50.43       -0.17
  sub70             GreenRoof            43.29      0.00      0.00      0.00      0.00      7.05     50.43       -0.17
  sub71             GreenRoof            43.29      0.00      0.00      0.00      0.00      7.05     50.43       -0.17
  sub72             GreenRoof            43.29      0.00      0.00      0.00      0.00      7.05     50.43       -0.17
  
  ******************
  Node Depth Summary
  ******************
  
  ---------------------------------------------------------------------------------
                                 Average  Maximum  Maximum  Time of Max    Reported
                                   Depth    Depth      HGL   Occurrence   Max Depth
  Node                 Type       Meters   Meters   Meters  days hr:min      Meters
  ---------------------------------------------------------------------------------
  WS02003060           JUNCTION     0.21     0.38     5.31     0  02:31        0.38
  WS02003066           JUNCTION     0.18     0.30     5.85     0  02:33        0.30
  WS02003067           JUNCTION     0.49     0.70     6.02     0  02:33        0.70
  WS02003069           JUNCTION     0.24     0.43     5.01     0  02:29        0.43
  WS02003072           JUNCTION     0.30     0.50     4.87     0  02:29        0.50
  WS02003073           JUNCTION     0.17     0.30     4.36     0  02:30        0.30
  WS02004401           JUNCTION     0.58     0.87     6.87     0  02:25        0.87
  WS02004402           JUNCTION     0.61     0.90     6.86     0  02:21        0.90
  WS02004403           JUNCTION     0.64     0.92     6.85     0  02:31        0.91
  WS02004404           JUNCTION     0.71     1.03     6.88     0  02:21        0.99
  WS02004405           JUNCTION     0.70     0.96     6.81     0  02:31        0.96
  WS02004406           JUNCTION     0.72     0.96     6.79     0  02:31        0.95
  WS02004407           JUNCTION     0.16     0.30     6.61     0  02:31        0.29
  WS02004409           JUNCTION     0.36     0.66     6.43     0  02:32        0.66
  WS02004410           JUNCTION     0.39     0.68     6.40     0  02:32        0.68
  WS02004411           JUNCTION     0.41     0.69     6.37     0  02:32        0.69
  WS02004412           JUNCTION     0.44     0.69     6.33     0  02:32        0.69
  WS02004413           JUNCTION     0.60     0.85     6.32     0  02:33        0.85
  WS02006109           JUNCTION     0.62     1.33     7.94     0  02:32        1.00
  WS02006110           JUNCTION     0.63     1.36     7.95     0  02:32        0.98
  WS02006111           JUNCTION     0.17     0.90     7.60     0  00:00        0.40
  WS02006112           JUNCTION     0.73     2.68     8.56     0  00:00        1.14
  WS02006113           JUNCTION     0.25     1.40     8.29     0  00:00        0.45
  WS02006115           JUNCTION     0.46     1.65     7.79     0  00:00        0.86
  WS02006116           JUNCTION     0.55     1.06     7.10     0  00:00        0.85
  WS02006228           JUNCTION     0.61     1.61     8.26     0  02:32        1.02
  WS02006229           JUNCTION     0.58     1.71     8.41     0  02:32        1.02
  WS02006230           JUNCTION     0.58     2.07     8.82     0  02:32        1.15
  WS02006231           JUNCTION     0.38     2.24     9.36     0  02:21        2.24
  WS02006232           JUNCTION     0.51     2.18     9.22     0  02:21        2.18
  WS02006234           JUNCTION     0.43     1.96     9.12     0  03:30        1.60
  WS02006235           JUNCTION     0.47     1.86     9.02     0  03:30        1.28
  WS02006238           JUNCTION     0.49     1.92     9.07     0  03:30        1.35
  WS02006239           JUNCTION     0.46     1.81     9.02     0  03:30        1.49
  WS02006240           JUNCTION     0.42     1.90     9.19     0  03:45        1.60
  WS02006242           JUNCTION     0.48     1.55     8.82     0  02:13        1.55
  WS02006243           JUNCTION     0.39     1.48     8.90     0  02:13        1.48
  WS02006245           JUNCTION     0.39     1.52     9.00     0  02:13        1.35
  WS02006247           JUNCTION     0.41     1.38     8.88     0  02:13        1.27
  WS02006248           JUNCTION     0.37     1.10     8.69     0  02:07        1.10
  WS02006249           JUNCTION     0.40     1.09     8.69     0  02:07        1.09
  WS02006251           JUNCTION     0.39     1.54     9.21     0  02:14        1.14
  WS02006252           JUNCTION     0.29     1.50     9.74     0  00:25        0.69
  WS02006256           JUNCTION     1.00     2.35     9.28     0  00:14        2.35
  WSF200               JUNCTION     0.15     0.29     5.52     0  02:31        0.29
  YS02001580           JUNCTION     0.06     1.05     9.59     0  02:10        0.77
  YS02001583           JUNCTION     0.09     1.14     9.64     0  02:10        0.85
  YS02001586           JUNCTION     0.16     1.13     9.30     0  02:10        1.13
  YS02001590           JUNCTION     0.26     1.40     9.26     0  02:10        1.37
  YS02001593           JUNCTION     0.19     1.32     9.18     0  02:10        1.28
  YS02001596           JUNCTION     0.26     1.68     9.10     0  02:10        1.65
  YS02001600           JUNCTION     0.32     1.87     9.00     0  02:10        1.87
  YS02001601           JUNCTION     0.52     2.06     8.90     0  02:08        2.06
  YS02001602           JUNCTION     0.43     1.87     8.77     0  02:09        1.87
  YS02001605           JUNCTION     0.40     1.78     8.68     0  02:10        1.78
  YS02001607           JUNCTION     0.39     1.68     8.53     0  02:10        1.65
  YS02001610           JUNCTION     0.43     1.68     8.48     0  02:10        1.68
  YS02001613           JUNCTION     0.39     1.70     8.54     0  02:10        1.66
  YS02001616           JUNCTION     0.33     1.61     8.52     0  02:10        1.61
  YS02001619           JUNCTION     0.30     1.61     8.54     0  02:10        1.57
  YS02001622           JUNCTION     0.29     1.61     8.52     0  02:10        1.55
  YS02001625           JUNCTION     0.54     1.78     8.38     0  02:10        1.78
  YS02001629           JUNCTION     0.41     1.85     8.40     0  02:10        1.85
  YS02001633           JUNCTION     0.48     1.95     8.40     0  02:10        1.95
  YS02001641           JUNCTION     0.46     1.76     8.20     0  02:16        1.76
  YS02001644           JUNCTION     0.45     1.71     8.14     0  02:14        1.71
  YS02001647           JUNCTION     0.23     1.41     8.02     0  02:14        1.41
  YS02001649           JUNCTION     0.26     1.50     7.89     0  02:15        1.49
  YS02001652           JUNCTION     0.15     1.36     7.96     0  02:14        1.29
  YS02001655           JUNCTION     0.10     1.29     8.14     0  02:14        1.05
  YS02001658           JUNCTION     0.07     0.80     7.94     0  02:15        0.77
  YS02001661           JUNCTION     0.12     0.48     7.89     0  02:16        0.39
  YS02001664           JUNCTION     0.05     0.25     8.18     0  02:14        0.25
  YS02001745           JUNCTION     0.04     0.22     7.74     0  02:13        0.22
  YS02001748           JUNCTION     0.06     0.67     7.74     0  02:15        0.63
  YS02001751           JUNCTION     0.08     0.87     7.75     0  02:15        0.84
  YS02001754           JUNCTION     0.11     1.37     7.97     0  02:14        1.10
  YS02001757           JUNCTION     0.26     1.50     7.76     0  02:15        1.44
  YS02001759           JUNCTION     0.20     1.56     7.93     0  02:14        1.56
  YS02001762           JUNCTION     0.19     1.69     8.09     0  02:14        1.69
  YS02001765           JUNCTION     0.18     1.73     8.18     0  02:14        1.73
  YS02001767           JUNCTION     0.18     1.79     8.28     0  02:14        1.79
  YS02001770           JUNCTION     0.19     1.88     8.37     0  02:14        1.88
  YS02001774           JUNCTION     0.26     1.96     8.38     0  02:14        1.96
  YS02001779           JUNCTION     0.09     1.68     8.37     0  02:13        1.68
  YS02001783           JUNCTION     0.22     1.29     7.43     0  02:14        1.28
  YS02001784           JUNCTION     0.24     1.16     7.22     0  02:14        1.14
  YS02001786           JUNCTION     0.20     0.92     6.95     0  02:14        0.86
  YS02001788           JUNCTION     0.15     0.62     6.59     0  02:14        0.61
  YS02001790           JUNCTION     0.17     0.72     6.36     0  02:15        0.70
  YS02001791           JUNCTION     0.11     0.43     5.90     0  02:15        0.43
  YS02001793           JUNCTION     0.06     0.26     5.09     0  02:21        0.25
  YS02001882           JUNCTION     0.27     1.83     8.55     0  02:12        1.69
  YS02001884           JUNCTION     0.35     1.90     8.52     0  02:12        1.74
  YS02001887           JUNCTION     0.43     1.90     8.44     0  02:12        1.78
  YS02001890           JUNCTION     0.46     1.81     8.32     0  02:12        1.81
  YS02001895           JUNCTION     0.24     1.75     8.50     0  02:12        1.55
  YS02001898           JUNCTION     0.25     1.71     8.44     0  02:12        1.55
  YS02001901           JUNCTION     0.35     1.74     8.35     0  02:12        1.67
  YS02001904           JUNCTION     0.33     1.69     8.32     0  02:12        1.63
  YS02001907           JUNCTION     0.64     1.96     8.25     0  02:13        1.96
  YS02001910           JUNCTION     0.45     2.10     8.61     0  02:12        1.80
  YS02001915           JUNCTION     0.26     2.00     8.72     0  02:12        1.65
  YS02001918           JUNCTION     0.12     1.81     8.88     0  02:14        1.33
  YS02001920           JUNCTION     0.20     2.10     9.11     0  02:14        1.41
  YS02001923           JUNCTION     0.09     2.00     9.26     0  02:14        1.18
  YS02001926           JUNCTION     0.13     1.89     9.34     0  02:14        1.00
  YS02001929           JUNCTION     0.06     1.78     9.47     0  02:14        0.71
  YS02006553           JUNCTION     0.65     1.98     8.26     0  02:14        1.98
  YS02006556           JUNCTION     0.62     1.97     8.28     0  02:14        1.97
  YS02006558           JUNCTION     0.66     2.01     8.28     0  02:14        2.01
  YS02006561           JUNCTION     0.13     0.98     7.64     0  02:14        0.97
  YS02163301           JUNCTION     0.43     1.99     8.51     0  02:10        1.99
  YS02163601           JUNCTION     0.52     1.90     8.30     0  02:14        1.89
  YS02164001           JUNCTION     0.45     1.78     8.24     0  02:15        1.78
  CC-1                 OUTFALL      0.00     0.00     0.00     0  00:00        0.00
  CC-2                 OUTFALL      0.00     0.00     0.00     0  00:00        0.00
  JK-1                 OUTFALL      0.00     0.00     0.00     0  00:00        0.00
  JK-2                 OUTFALL      0.00     0.00     0.00     0  00:00        0.00
  WSC                  OUTFALL      0.17     0.30     0.97     0  02:30        0.30
  CC-storage           STORAGE      0.70     1.34     6.84     0  02:35        1.34
  JK-storage           STORAGE      1.42     4.22     5.02     0  02:21        4.22
  
  
  *******************
  Node Inflow Summary
  *******************
  
  -------------------------------------------------------------------------------------------------
                                  Maximum  Maximum                  Lateral       Total        Flow
                                  Lateral    Total  Time of Max      Inflow      Inflow     Balance
                                   Inflow   Inflow   Occurrence      Volume      Volume       Error
  Node                 Type           LPS      LPS  days hr:min    10^6 ltr    10^6 ltr     Percent
  -------------------------------------------------------------------------------------------------
  WS02003060           JUNCTION     16.53   546.07     0  02:33       0.476        4.13       0.061
  WS02003066           JUNCTION      0.00   529.28     0  02:33           0        3.66       0.039
  WS02003067           JUNCTION      0.00   529.13     0  02:33           0        3.66       0.116
  WS02003069           JUNCTION      0.32   546.03     0  02:34     0.00922        4.14       0.097
  WS02003072           JUNCTION      0.00   545.11     0  02:29           0        4.14       0.169
  WS02003073           JUNCTION      1.82   546.77     0  02:29      0.0524        4.18       0.137
  WS02004401           JUNCTION      0.00  1677.78     0  00:00           0        3.77       0.308
  WS02004402           JUNCTION      0.00  1171.33     0  00:01           0        3.76       0.302
  WS02004403           JUNCTION      0.00   884.75     0  00:01           0        3.75       0.293
  WS02004404           JUNCTION      0.16   832.59     0  00:01     0.00467        3.74       0.239
  WS02004405           JUNCTION      0.04   776.49     0  00:01      0.0011        3.73       0.311
  WS02004406           JUNCTION      0.00   711.76     0  00:02           0        3.72       0.590
  WS02004407           JUNCTION      0.00   536.36     0  02:31           0         3.7       0.033
  WS02004409           JUNCTION      0.00   535.05     0  02:31           0         3.7       0.077
  WS02004410           JUNCTION      0.00   532.72     0  02:26           0         3.7       0.124
  WS02004411           JUNCTION      0.00   531.21     0  02:32           0        3.69       0.158
  WS02004412           JUNCTION      0.00   530.14     0  02:27           0        3.69       0.204
  WS02004413           JUNCTION      0.00   529.92     0  02:32           0        3.68       0.373
  WS02006109           JUNCTION      1.23  1308.01     0  00:00      0.0354        3.71       0.216
  WS02006110           JUNCTION      0.00   564.65     0  02:32           0        3.68      -0.967
  WS02006111           JUNCTION      0.00  1176.04     0  00:00           0        3.71      -1.030
  WS02006112           JUNCTION      0.00  2307.30     0  00:00           0        3.75      -0.010
  WS02006113           JUNCTION      0.00   569.47     0  02:33           0        3.67      -1.335
  WS02006115           JUNCTION      0.00   899.27     0  00:00           0        3.72      -0.857
  WS02006116           JUNCTION      0.00  1098.16     0  00:01           0        3.75      -0.611
  WS02006228           JUNCTION      0.00   563.39     0  02:32           0        3.65       0.088
  WS02006229           JUNCTION      0.00   562.86     0  02:32           0        3.64       0.247
  WS02006230           JUNCTION     10.28   583.76     0  03:00       0.296        3.62       0.005
  WS02006231           JUNCTION      0.00   572.29     0  03:00           0        3.31       0.039
  WS02006232           JUNCTION      0.00   570.90     0  03:00           0        3.32       0.315
  WS02006234           JUNCTION      0.00   566.46     0  03:00           0        3.31      -0.423
  WS02006235           JUNCTION      0.00   561.88     0  02:26           0        3.43       0.536
  WS02006238           JUNCTION      0.00   427.19     0  02:25           0        2.73      -0.148
  WS02006239           JUNCTION      0.00   424.84     0  02:25           0        2.65      -0.261
  WS02006240           JUNCTION      0.00   422.03     0  02:30           0        2.62       0.003
  WS02006242           JUNCTION      0.00   421.75     0  02:30           0        2.61       0.074
  WS02006243           JUNCTION      0.00   421.14     0  02:30           0        2.59      -0.338
  WS02006245           JUNCTION      0.00   420.09     0  02:30           0         2.6       0.506
  WS02006247           JUNCTION      0.00   420.62     0  02:30           0         2.6      -0.013
  WS02006248           JUNCTION      0.00   421.40     0  02:25           0         2.6      -0.015
  WS02006249           JUNCTION      0.00   441.91     0  00:10           0         2.7       0.575
  WS02006251           JUNCTION      0.08   412.05     0  02:14     0.00222        2.71       0.081
  WS02006252           JUNCTION      0.00   400.00     0  00:10           0        2.69      -0.476
  WS02006256           JUNCTION      0.00   300.00     0  00:15           0       0.975      -4.045
  WSF200               JUNCTION      0.00   529.40     0  02:33           0        3.66       0.013
  YS02001580           JUNCTION      0.00   130.65     0  02:10           0     0.00432       0.158
  YS02001583           JUNCTION      0.00   183.26     0  02:10           0      0.0153      -4.989
  YS02001586           JUNCTION    379.01   379.01     0  02:15       0.885       0.896       0.134
  YS02001590           JUNCTION      0.00   318.10     0  02:21           0        0.86      -0.055
  YS02001593           JUNCTION      0.00   318.23     0  02:21           0       0.861      -0.004
  YS02001596           JUNCTION      0.00   317.89     0  02:15           0       0.861      -0.003
  YS02001600           JUNCTION      0.00   317.98     0  02:15           0       0.861       0.006
  YS02001601           JUNCTION    665.99   983.70     0  02:14        1.22        2.08       0.014
  YS02001602           JUNCTION      0.00   519.06     0  02:09           0        1.67       0.014
  YS02001605           JUNCTION      0.00   519.56     0  02:09           0        1.63       0.024
  YS02001607           JUNCTION      0.00   520.11     0  02:09           0        1.63       0.112
  YS02001610           JUNCTION      0.00   519.81     0  02:09           0        1.63       0.134
  YS02001613           JUNCTION      0.00   521.11     0  02:09           0        1.57       0.098
  YS02001616           JUNCTION      0.00   520.90     0  02:09           0        1.56       0.024
  YS02001619           JUNCTION    653.86   937.28     0  02:12        1.36        2.92      -0.004
  YS02001622           JUNCTION      0.00   936.88     0  02:12           0        2.92      -0.003
  YS02001625           JUNCTION      0.00   936.68     0  02:12           0        2.92       0.297
  YS02001629           JUNCTION      0.00   936.64     0  02:12           0        2.85       0.020
  YS02001633           JUNCTION    513.44  1403.86     0  02:12       0.912        3.77       0.087
  YS02001641           JUNCTION      0.00  1404.23     0  02:12           0        3.77       0.073
  YS02001644           JUNCTION    439.86  1820.98     0  02:12       0.746        4.51       0.069
  YS02001647           JUNCTION      0.00  1821.29     0  02:12           0         4.5       0.009
  YS02001649           JUNCTION      0.00  2107.94     0  02:12           0         5.2       0.006
  YS02001652           JUNCTION      0.00   488.39     0  02:17           0       0.706      -0.126
  YS02001655           JUNCTION      0.15   535.53     0  02:16     0.00443       0.706       0.016
  YS02001658           JUNCTION      0.00   558.01     0  02:16           0       0.702       0.001
  YS02001661           JUNCTION      0.00   441.09     0  02:14           0       0.702       0.039
  YS02001664           JUNCTION    441.20   441.20     0  02:14       0.702       0.702      -0.007
  YS02001745           JUNCTION    271.41   271.41     0  02:13        0.41        0.41       0.255
  YS02001748           JUNCTION      0.04   271.94     0  02:13      0.0013        0.41      -0.292
  YS02001751           JUNCTION      0.01   411.42     0  02:14    0.000317       0.414       0.193
  YS02001754           JUNCTION      0.26   383.03     0  02:16     0.00749       0.422      -0.493
  YS02001757           JUNCTION      0.00  3000.76     0  02:16           0        7.12       0.072
  YS02001759           JUNCTION    394.56  1024.19     0  02:14       0.596         1.5      -0.008
  YS02001762           JUNCTION      0.00   627.86     0  02:14           0         0.9       0.017
  YS02001765           JUNCTION      0.00   617.73     0  02:14           0         0.9       0.005
  YS02001767           JUNCTION      0.54   612.25     0  02:14      0.0154         0.9       0.014
  YS02001770           JUNCTION    541.56   612.62     0  02:14       0.885       0.928      -0.019
  YS02001774           JUNCTION      0.00   254.24     0  02:13           0      0.0629       1.925
  YS02001779           JUNCTION      0.01   258.53     0  02:13    0.000144      0.0194      -3.651
  YS02001783           JUNCTION      0.00  1143.93     0  02:14           0        2.62       0.008
  YS02001784           JUNCTION      1.06  1144.69     0  02:14      0.0305        2.65       0.019
  YS02001786           JUNCTION      0.06  1145.24     0  02:14     0.00162        2.65       0.024
  YS02001788           JUNCTION      0.07  1145.32     0  02:14     0.00204        2.65       0.011
  YS02001790           JUNCTION      0.15  1153.70     0  02:16     0.00446        2.66       0.027
  YS02001791           JUNCTION      0.00  1276.25     0  02:15           0        2.66      -0.014
  YS02001793           JUNCTION      0.00  1209.94     0  02:19           0        2.66       0.009
  YS02001882           JUNCTION      0.00    77.32     0  02:11           0      0.0125       5.505
  YS02001884           JUNCTION      0.00    83.09     0  02:11           0      0.0482       5.465
  YS02001887           JUNCTION    424.07   426.54     0  02:12       0.627        0.66       0.682
  YS02001890           JUNCTION      0.00   429.76     0  02:12           0       0.619       0.828
  YS02001895           JUNCTION      0.00   432.59     0  02:12           0       0.614       0.230
  YS02001898           JUNCTION      0.00   435.11     0  02:12           0       0.612       0.079
  YS02001901           JUNCTION      0.00   449.16     0  02:12           0       0.614       0.536
  YS02001904           JUNCTION      0.00   450.69     0  02:12           0       0.618       0.473
  YS02001907           JUNCTION      0.00  1273.22     0  02:14           0        1.89       0.958
  YS02001910           JUNCTION      0.00   897.56     0  02:15           0        1.28       0.552
  YS02001915           JUNCTION    446.83   896.60     0  02:15       0.764        1.32       0.108
  YS02001918           JUNCTION      0.00   458.95     0  02:15           0       0.574       0.069
  YS02001920           JUNCTION      2.87   458.12     0  02:15      0.0827       0.557       0.184
  YS02001923           JUNCTION      0.04   473.40     0  02:14     0.00109       0.459      -0.250
  YS02001926           JUNCTION      0.05   513.55     0  02:14      0.0015       0.441      -0.260
  YS02001929           JUNCTION    228.98   333.80     0  02:13        0.43       0.432      -0.153
  YS02006553           JUNCTION      0.00   809.36     0  02:22           0         1.8       0.654
  YS02006556           JUNCTION      0.00   809.93     0  02:21           0        1.81       0.451
  YS02006558           JUNCTION    537.54  1148.01     0  02:13       0.865        2.65       0.131
  YS02006561           JUNCTION      0.00  1147.86     0  02:13           0        2.62      -0.001
  YS02163301           JUNCTION      0.00   936.31     0  02:11           0        2.86       0.052
  YS02163601           JUNCTION      0.11  1403.83     0  02:12     0.00317        3.76       0.128
  YS02164001           JUNCTION      0.00  1403.88     0  02:12           0        3.76       0.059
  CC-1                 OUTFALL       0.00   683.00     0  00:05           0        3.54       0.000
  CC-2                 OUTFALL       0.00   683.00     0  00:25           0        1.75       0.000
  JK-1                 OUTFALL       0.00  1000.00     0  01:45           0        1.34       0.000
  JK-2                 OUTFALL       0.00  1000.00     0  00:15           0       0.476       0.000
  WSC                  OUTFALL       0.00   546.13     0  02:30           0        4.18       0.000
  CC-storage           STORAGE       0.00  3000.81     0  02:16           0        9.35      -0.317
  JK-storage           STORAGE       0.00  1233.46     0  02:19           0        2.81      -0.621
  
  
  **********************
  Node Surcharge Summary
  **********************
  
  Surcharging occurs when water rises above the top of the highest conduit.
  ---------------------------------------------------------------------
                                               Max. Height   Min. Depth
                                   Hours       Above Crown    Below Rim
  Node                 Type      Surcharged         Meters       Meters
  ---------------------------------------------------------------------
  WS02004404           JUNCTION        0.01          0.032        2.748
  WS02006109           JUNCTION        1.10          0.506        1.314
  WS02006110           JUNCTION        0.26          0.453        1.397
  WS02006111           JUNCTION        0.01          0.087        1.783
  WS02006112           JUNCTION        0.38          1.680        0.000
  WS02006113           JUNCTION        0.01          0.600        1.330
  WS02006115           JUNCTION        0.01          0.642        1.608
  WS02006116           JUNCTION        0.01          0.000        2.290
  WS02006228           JUNCTION        1.10          0.783        1.417
  WS02006229           JUNCTION        1.12          0.913        1.537
  WS02006230           JUNCTION        0.26          0.992        0.578
  WS02006231           JUNCTION        0.36          1.530        0.000
  WS02006232           JUNCTION        1.26          1.480        0.000
  WS02006234           JUNCTION        0.57          1.240        0.000
  WS02006235           JUNCTION        1.09          1.146        0.144
  WS02006238           JUNCTION        1.16          1.204        0.226
  WS02006239           JUNCTION        1.10          1.066        0.224
  WS02006240           JUNCTION        1.11          1.188        0.202
  WS02006242           JUNCTION        1.21          0.820        0.000
  WS02006243           JUNCTION        1.09          0.770        0.000
  WS02006245           JUNCTION        1.05          0.808        0.042
  WS02006247           JUNCTION        1.07          0.665        0.095
  WS02006248           JUNCTION        1.03          0.380        0.000
  WS02006249           JUNCTION        1.05          0.390        0.000
  WS02006251           JUNCTION        0.37          0.506        0.674
  WS02006252           JUNCTION        1.50          1.100        0.000
  WS02006256           JUNCTION        6.53          2.050        0.000
  YS02001580           JUNCTION        0.26          0.450        0.000
  YS02001583           JUNCTION        0.27          0.500        0.000
  YS02001586           JUNCTION        0.38          0.510        0.000
  YS02001590           JUNCTION        0.44          0.750        0.000
  YS02001593           JUNCTION        0.44          0.699        0.141
  YS02001596           JUNCTION        0.53          0.951        0.119
  YS02001600           JUNCTION        0.65          1.190        0.000
  YS02001601           JUNCTION        1.00          1.440        0.000
  YS02001602           JUNCTION        0.88          1.270        0.000
  YS02001605           JUNCTION        0.82          1.180        0.000
  YS02001607           JUNCTION        0.39          0.680        0.000
  YS02001610           JUNCTION        0.41          0.680        0.000
  YS02001613           JUNCTION        0.38          0.700        0.000
  YS02001616           JUNCTION        0.35          0.610        0.000
  YS02001619           JUNCTION        0.34          0.610        0.000
  YS02001622           JUNCTION        0.34          0.612        0.008
  YS02001625           JUNCTION        0.49          0.780        0.000
  YS02001629           JUNCTION        0.28          0.470        0.000
  YS02001633           JUNCTION        0.50          0.929        0.131
  YS02001641           JUNCTION        0.41          0.762        0.338
  YS02001644           JUNCTION        0.38          0.712        0.208
  YS02001647           JUNCTION        0.20          0.409        0.491
  YS02001649           JUNCTION        0.26          0.498        0.552
  YS02001652           JUNCTION        0.12          0.335        0.795
  YS02001655           JUNCTION        0.02          0.294        0.906
  YS02001754           JUNCTION        0.03          0.316        0.834
  YS02001757           JUNCTION        0.27          0.498        0.712
  YS02001759           JUNCTION        0.21          0.564        0.646
  YS02001762           JUNCTION        0.19          0.685        0.465
  YS02001765           JUNCTION        0.15          0.734        0.366
  YS02001767           JUNCTION        0.12          0.790        0.240
  YS02001770           JUNCTION        0.10          0.848        0.072
  YS02001774           JUNCTION        0.17          0.958        0.092
  YS02001779           JUNCTION        0.04          0.680        0.000
  YS02001783           JUNCTION        0.26          0.488        1.112
  YS02001784           JUNCTION        0.24          0.357        1.133
  YS02001786           JUNCTION        0.14          0.117        1.313
  YS02001882           JUNCTION        0.22          0.830        0.000
  YS02001884           JUNCTION        0.22          0.839        0.031
  YS02001887           JUNCTION        0.25          0.848        0.102
  YS02001890           JUNCTION        0.26          0.760        0.000
  YS02001895           JUNCTION        0.21          0.750        0.000
  YS02001898           JUNCTION        0.20          0.678        0.062
  YS02001901           JUNCTION        0.24          0.737        0.133
  YS02001904           JUNCTION        0.23          0.692        0.158
  YS02001907           JUNCTION        0.44          0.950        0.000
  YS02001910           JUNCTION        0.28          1.100        0.000
  YS02001915           JUNCTION        0.21          1.000        0.000
  YS02001918           JUNCTION        0.14          0.810        0.000
  YS02001920           JUNCTION        0.15          1.098        0.042
  YS02001923           JUNCTION        0.01          0.791        0.029
  YS02001926           JUNCTION        0.01          0.894        0.006
  YS02001929           JUNCTION        0.01          0.780        0.000
  YS02006553           JUNCTION        0.45          0.981        0.209
  YS02006556           JUNCTION        0.36          0.925        0.425
  YS02006558           JUNCTION        0.35          0.908        0.492
  YS02006561           JUNCTION        0.10          0.176        0.974
  YS02163301           JUNCTION        0.48          0.990        0.040
  YS02163601           JUNCTION        0.52          0.897        0.183
  YS02164001           JUNCTION        0.43          0.783        0.317
  
  
  *********************
  Node Flooding Summary
  *********************
  
  Flooding refers to all water that overflows a node, whether it ponds or not.
  --------------------------------------------------------------------------
                                                             Total   Maximum
                                 Maximum   Time of Max       Flood    Ponded
                        Hours       Rate    Occurrence      Volume     Depth
  Node                 Flooded       LPS   days hr:min    10^6 ltr    Meters
  --------------------------------------------------------------------------
  WS02006112              0.01   1547.89      0  00:00       0.047     0.000
  WS02006231              0.01     29.31      0  02:21       0.000     0.000
  WS02006232              0.01     12.51      0  02:21       0.000     0.000
  WS02006234              0.01     74.79      0  03:30       0.000     0.000
  WS02006242              0.01     42.94      0  03:45       0.000     0.000
  WS02006243              0.01     29.97      0  02:13       0.000     0.000
  WS02006248              0.01     24.00      0  02:07       0.000     0.000
  WS02006249              0.36    120.83      0  02:14       0.086     0.000
  WS02006252              0.01      0.91      0  03:20       0.000     0.000
  WS02006256              0.90    288.77      0  03:15       0.283     0.000
  YS02001580              0.01    115.94      0  02:10       0.000     0.000
  YS02001583              0.01    126.48      0  02:10       0.000     0.000
  YS02001586              0.17     91.14      0  02:10       0.023     0.000
  YS02001590              0.01      2.55      0  02:10       0.000     0.000
  YS02001600              0.01      0.86      0  02:10       0.000     0.000
  YS02001601              0.32    585.83      0  02:14       0.404     0.000
  YS02001602              0.21     61.97      0  02:18       0.037     0.000
  YS02001605              0.01      3.87      0  02:10       0.000     0.000
  YS02001607              0.01      6.71      0  02:10       0.000     0.000
  YS02001610              0.15    168.85      0  02:16       0.065     0.000
  YS02001613              0.01      9.21      0  02:10       0.000     0.000
  YS02001616              0.01     16.68      0  02:10       0.000     0.000
  YS02001619              0.01     14.71      0  02:10       0.000     0.000
  YS02001625              0.12    271.59      0  02:16       0.060     0.000
  YS02001629              0.01    118.37      0  02:10       0.000     0.000
  YS02001779              0.01    203.83      0  02:13       0.001     0.000
  YS02001882              0.01     43.54      0  02:12       0.000     0.000
  YS02001890              0.01     40.61      0  02:12       0.000     0.000
  YS02001895              0.01     56.65      0  02:12       0.000     0.000
  YS02001907              0.10    646.32      0  02:15       0.082     0.000
  YS02001910              0.01     43.79      0  02:12       0.000     0.000
  YS02001915              0.01    145.69      0  02:12       0.000     0.000
  YS02001918              0.01     87.89      0  02:14       0.000     0.000
  YS02001929              0.01    251.18      0  02:14       0.001     0.000
  
  
  **********************
  Storage Volume Summary
  **********************
  
  ------------------------------------------------------------------------------------------------
                         Average    Avg   Evap  Exfil     Maximum    Max    Time of Max    Maximum
                          Volume   Pcnt   Pcnt   Pcnt      Volume   Pcnt     Occurrence    Outflow
  Storage Unit           1000 m³   Full   Loss   Loss     1000 m³   Full    days hr:min        LPS
  ------------------------------------------------------------------------------------------------
  CC-storage               1.946   30.4    0.0    0.0       3.724   58.1       0  02:35    1766.00
  JK-storage               0.071   24.4    0.0    0.0       0.212   72.8       0  02:21    2300.00
  
  
  ***********************
  Outfall Loading Summary
  ***********************
  
  -----------------------------------------------------------
                         Flow       Avg       Max       Total
                         Freq      Flow      Flow      Volume
  Outfall Node           Pcnt       LPS       LPS    10^6 ltr
  -----------------------------------------------------------
  CC-1                  31.35    683.00    683.00       3.539
  CC-2                  14.67    683.00    683.00       1.752
  JK-1                   7.38   1000.00   1000.00       1.340
  JK-2                   3.26   1000.00   1000.00       0.476
  WSC                   99.99    215.48    546.13       4.177
  -----------------------------------------------------------
  System                31.33   3581.48   2911.87      11.283
  
  
  ********************
  Link Flow Summary
  ********************
  
  -----------------------------------------------------------------------------
                                 Maximum  Time of Max   Maximum    Max/    Max/
                                  |Flow|   Occurrence   |Veloc|    Full    Full
  Link                 Type          LPS  days hr:min     m/sec    Flow   Depth
  -----------------------------------------------------------------------------
  1                    CONDUIT    546.13     0  02:30      2.81    0.19    0.30
  WS02003060WS02003069 CONDUIT    545.71     0  02:34      1.64    0.21    0.34
  WS02003066WSF200     CONDUIT    529.40     0  02:33      2.84    0.09    0.22
  WS02003067WS02003066 CONDUIT    529.28     0  02:33      1.20    0.17    0.41
  WS02003069WS02003072 CONDUIT    545.11     0  02:29      1.36    0.26    0.38
  WS02003072WS02003073 CONDUIT    544.95     0  02:29      1.43    1.18    0.37
  WS02004401WS02004402 CONDUIT   1171.33     0  00:01      2.51    1.41    0.88
  WS02004402WS02004403 CONDUIT    884.75     0  00:01      2.16    1.27    0.91
  WS02004403WS02004404 CONDUIT    832.43     0  00:01      1.96    0.60    0.95
  WS02004404WS02004405 CONDUIT    776.45     0  00:01      2.26    7.61    0.98
  WS02004405WS02004406 CONDUIT    711.76     0  00:02      2.15    1.40    0.96
  WS02004406WS02004407 CONDUIT    536.36     0  02:31      1.04    0.24    0.63
  WS02004407WS02004409 CONDUIT    535.05     0  02:31      1.95    0.19    0.48
  WS02004409WS02004410 CONDUIT    532.72     0  02:26      1.31    0.69    0.67
  WS02004410WS02004411 CONDUIT    531.21     0  02:32      1.19    0.73    0.68
  WS02004411WS02004412 CONDUIT    530.14     0  02:27      1.07    0.75    0.69
  WS02004412WS02004413 CONDUIT    529.92     0  02:32      1.10    0.35    0.77
  WS02004413WS02003067 CONDUIT    529.13     0  02:33      1.10    0.23    0.59
  WS02006109WS02006110 CONDUIT   1306.78     0  00:00      3.14    2.51    1.00
  WS02006110WS02006113 CONDUIT    569.47     0  02:33      1.38    0.52    1.00
  WS02006111WS02006112 CONDUIT   2307.30     0  00:00      9.18    1.10    0.91
  WS02006112WS02006115 CONDUIT    899.27     0  00:00      1.16    0.53    1.00
  WS02006113WS02006111 CONDUIT   1176.04     0  00:00      2.47    1.41    1.00
  WS02006115WS02006116 CONDUIT   1098.16     0  00:01      1.72    1.41    1.00
  WS02006116WS02004401 CONDUIT   1677.78     0  00:00      2.92    2.31    0.86
  WS02006228WS02006109 CONDUIT    563.23     0  02:32      1.40    2.46    1.00
  WS02006229WS02006228 CONDUIT    563.39     0  02:32      1.24    1.87    1.00
  WS02006230WS02006229 CONDUIT    562.86     0  02:32      1.46   12.53    1.00
  WS02006231WS02006230 CONDUIT    573.48     0  03:00      1.57    8.70    1.00
  WS02006232WS02006231 CONDUIT    572.29     0  03:00      1.49    1.20    1.00
  WS02006234WS02006232 CONDUIT    570.90     0  03:00      1.64    1.15    1.00
  WS02006235WS02006234 CONDUIT    566.46     0  03:00      1.47    5.98    1.00
  WS02006238WS02006235 CONDUIT    427.60     0  02:25      1.65    0.95    1.00
  WS02006239WS02006238 CONDUIT    427.19     0  02:25      1.27    1.37    1.00
  WS02006240WS02006239 CONDUIT    424.84     0  02:25      1.31    1.34    1.00
  WS02006242WS02006240 CONDUIT    422.03     0  02:30      1.17    1.68    1.00
  WS02006243WS02006242 CONDUIT    421.75     0  02:30      1.42    0.90    1.00
  WS02006245WS02006243 CONDUIT    421.14     0  02:30      1.43    1.25    1.00
  WS02006247WS02006245 CONDUIT    420.09     0  02:30      1.39    3.33    1.00
  WS02006248WS02006247 CONDUIT    420.62     0  02:30      1.46    0.92    1.00
  WS02006249WS02006248 CONDUIT    421.40     0  02:25      1.40    2.31    1.00
  WS02006251WS02006249 CONDUIT    441.91     0  00:10      1.94    1.27    1.00
  WS02006252WS02006251 CONDUIT    411.97     0  02:14     22.03    1.51    1.00
  WS02006256WS02006235 CONDUIT    287.38     0  04:30      4.19    3.04    1.00
  WSF200WS02003060     CONDUIT    529.54     0  02:33      2.06    0.12    0.28
  YS02001580YS02001583 CONDUIT    130.65     0  02:10      0.71    0.51    1.00
  YS02001583YS02001586 CONDUIT    168.63     0  02:10      0.72    0.26    1.00
  YS02001586YS02001590 CONDUIT    318.10     0  02:21      1.27    0.56    1.00
  YS02001590YS02001593 CONDUIT    318.23     0  02:21      1.13    2.00    1.00
  YS02001593YS02001596 CONDUIT    317.89     0  02:15      1.73    0.50    1.00
  YS02001596YS02001600 CONDUIT    317.98     0  02:15      1.21    0.62    1.00
  YS02001600YS02001601 CONDUIT    317.80     0  02:15      1.12    0.55    1.00
  YS02001601YS02001602 CONDUIT    519.06     0  02:09      1.84    1.87    1.00
  YS02001602YS02001605 CONDUIT    519.56     0  02:09      1.84   10.99    1.00
  YS02001605YS02001607 CONDUIT    520.11     0  02:09      1.84    2.85    1.00
  YS02001607YS02001610 CONDUIT    519.81     0  02:09      0.66    0.49    1.00
  YS02001610YS02001613 CONDUIT    521.11     0  02:09      0.66    0.60    1.00
  YS02001613YS02001616 CONDUIT    520.90     0  02:09      0.67    0.45    1.00
  YS02001616YS02001619 CONDUIT    501.57     0  02:09      0.68    0.87    1.00
  YS02001619YS02001622 CONDUIT    936.88     0  02:12      1.19    1.38    1.00
  YS02001622YS02001625 CONDUIT    936.68     0  02:12      1.19    0.50    1.00
  YS02001625YS02001629 CONDUIT    936.64     0  02:12      1.19    0.45    1.00
  YS02001629YS02163301 CONDUIT    936.31     0  02:11      1.19    1.15    1.00
  YS02001633YS02163601 CONDUIT   1403.72     0  02:12      1.79    1.47    1.00
  YS02001641YS02001644 CONDUIT   1404.38     0  02:12      1.79    4.54    1.00
  YS02001644YS02001647 CONDUIT   1821.29     0  02:12      2.33    1.07    1.00
  YS02001647YS02001649 CONDUIT   1830.00     0  02:12      2.38    0.97    1.00
  YS02001649YS02001757 CONDUIT   2117.05     0  02:12      2.70    1.28    1.00
  YS02001652YS02001649 CONDUIT    488.93     0  02:17      0.75    0.24    1.00
  YS02001655YS02001652 CONDUIT    488.39     0  02:17      1.30    0.24    1.00
  YS02001658YS02001655 CONDUIT    535.38     0  02:16      1.94    0.23    0.90
  YS02001661YS02001658 CONDUIT    558.01     0  02:16      2.35    0.22    0.55
  YS02001664YS02001661 CONDUIT    441.09     0  02:14      2.20    0.14    0.36
  YS02001745YS02001748 CONDUIT    271.89     0  02:13      2.14    0.10    0.40
  YS02001748YS02001751 CONDUIT    387.90     0  02:15      1.74    0.20    0.74
  YS02001751YS02001754 CONDUIT    382.77     0  02:16      1.41    0.18    0.94
  YS02001754YS02001757 CONDUIT    330.22     0  02:16      0.46    0.13    1.00
  YS02001757CaochengTiaoxuchi CONDUIT   3000.81     0  02:16      3.89    1.30    1.00
  YS02001759YS02001757 CONDUIT   1028.77     0  02:14      1.31    0.73    1.00
  YS02001762YS02001759 CONDUIT    635.92     0  02:14      0.81    0.73    1.00
  YS02001765YS02001762 CONDUIT    627.86     0  02:14      0.80    0.59    1.00
  YS02001767YS02001765 CONDUIT    617.73     0  02:14      0.79    0.78    1.00
  YS02001770YS02001767 CONDUIT    611.71     0  02:14      0.78    2.42    1.00
  YS02001774YS02001770 CONDUIT    254.24     0  02:13      0.32    0.16    1.00
  YS02001779YS02001774 CONDUIT    258.52     0  02:13      0.33    0.13    1.00
  YS02001783YS02001784 CONDUIT   1143.63     0  02:14      2.28    1.58    1.00
  YS02001784YS02001785 CONDUIT   1145.19     0  02:14      2.28    2.67    1.00
  YS02001786YS02001788 CONDUIT   1145.25     0  02:14      2.44    2.21    0.89
  YS02001788YS02001790 CONDUIT   1153.54     0  02:16      2.68    0.85    0.83
  YS02001790YS02001791 CONDUIT   1276.25     0  02:15      3.43    1.39    0.70
  YS02001791YS02001793 CONDUIT   1209.94     0  02:19      6.62    0.52    0.42
  YS02001793JiankangQianchi CONDUIT   1233.46     0  02:19      2.47    0.10    0.63
  YS02001882YS02001884 CONDUIT     77.32     0  02:11      0.10    0.09    1.00
  YS02001884YS02001887 CONDUIT     83.09     0  02:11      0.11    0.11    1.00
  YS02001887YS02001890 CONDUIT    429.76     0  02:12      0.55    0.74    1.00
  YS02001890YS02001895 CONDUIT    432.59     0  02:12      0.55    0.20    1.00
  YS02001895YS02001898 CONDUIT    435.11     0  02:12      0.55    0.76    1.00
  YS02001898YS02001901 CONDUIT    449.16     0  02:12      0.57    0.29    1.00
  YS02001901YS02001904 CONDUIT    450.69     0  02:12      0.57    0.70    1.00
  YS02001904YS02001907 CONDUIT    455.19     0  02:12      0.58    0.16    1.00
  YS02001907YS02006553 CONDUIT    809.36     0  02:22      0.90    0.95    1.00
  YS02001910YS02001907 CONDUIT    898.44     0  02:15      1.14    0.51    1.00
  YS02001915YS02001910 CONDUIT    897.56     0  02:15      1.14    0.45    1.00
  YS02001918YS02001915 CONDUIT    460.62     0  02:15      0.59    0.25    1.00
  YS02001920YS02001918 CONDUIT    458.95     0  02:15      0.64    0.44    1.00
  YS02001923YS02001920 CONDUIT    455.25     0  02:15      0.73    0.20    1.00
  YS02001926YS02001923 CONDUIT    411.58     0  02:14      0.98    0.59    1.00
  YS02001929YS02001926 CONDUIT    406.01     0  02:14      1.15    0.19    1.00
  YS02006553YS02006556 CONDUIT    809.93     0  02:21      1.03    0.69    1.00
  YS02006556YS02006558 CONDUIT    812.22     0  02:21      1.03    0.64    1.00
  YS02006558YS02006561 CONDUIT   1147.86     0  02:13      4.06    2.54    1.00
  YS02006561YS02001783 CONDUIT   1143.93     0  02:14      2.30    0.59    1.00
  YS02163301YS02001633 CONDUIT    936.31     0  02:11      1.19    0.88    1.00
  YS02163601YS02164001 CONDUIT   1403.88     0  02:12      1.79    1.24    1.00
  YS02164001YS02001641 CONDUIT   1404.23     0  02:12      1.79    1.92    1.00
  CC-R1                PUMP       683.00     0  00:05              1.00
  CC-R2                PUMP       683.00     0  00:25              1.00
  CC-S1                PUMP       200.00     0  00:10              1.00
  CC-S2                PUMP       200.00     0  00:10              1.00
  JK-R1                PUMP      1000.00     0  01:45              1.00
  JK-R2                PUMP      1000.00     0  00:15              1.00
  JK-S                 PUMP       300.00     0  00:15              1.00
  
  
  ***************************
  Flow Classification Summary
  ***************************
  
  -------------------------------------------------------------------------------------
                      Adjusted    ---------- Fraction of Time in Flow Class ---------- 
                       /Actual         Up    Down  Sub   Sup   Up    Down  Norm  Inlet 
  Conduit               Length    Dry  Dry   Dry   Crit  Crit  Crit  Crit  Ltd   Ctrl  
  -------------------------------------------------------------------------------------
  1                       1.00   0.00  0.00  0.00  0.00  1.00  0.00  0.00  0.35  0.00
  WS02003060WS02003069    1.00   0.00  0.00  0.00  0.97  0.03  0.00  0.00  0.74  0.00
  WS02003066WSF200        1.00   0.03  0.00  0.00  0.00  0.97  0.00  0.00  0.91  0.00
  WS02003067WS02003066    1.00   0.02  0.01  0.00  0.97  0.00  0.00  0.00  0.00  0.00
  WS02003069WS02003072    1.00   0.00  0.00  0.00  0.99  0.01  0.00  0.00  0.82  0.00
  WS02003072WS02003073    1.00   0.00  0.00  0.00  0.00  0.00  0.00  1.00  0.00  0.00
  WS02004401WS02004402    1.00   0.00  0.00  0.00  1.00  0.00  0.00  0.00  0.00  0.00
  WS02004402WS02004403    1.00   0.00  0.00  0.00  1.00  0.00  0.00  0.00  0.00  0.00
  WS02004403WS02004404    1.00   0.00  0.00  0.00  1.00  0.00  0.00  0.00  0.00  0.00
  WS02004404WS02004405    1.00   0.00  0.00  0.00  1.00  0.00  0.00  0.00  0.01  0.00
  WS02004405WS02004406    1.00   0.00  0.00  0.00  1.00  0.00  0.00  0.00  0.00  0.00
  WS02004406WS02004407    1.00   0.00  0.00  0.00  1.00  0.00  0.00  0.00  0.00  0.00
  WS02004407WS02004409    1.00   0.00  0.00  0.00  0.99  0.01  0.00  0.00  0.99  0.00
  WS02004409WS02004410    1.00   0.00  0.00  0.00  0.99  0.00  0.00  0.00  0.00  0.00
  WS02004410WS02004411    1.00   0.01  0.00  0.00  0.99  0.00  0.00  0.00  0.00  0.00
  WS02004411WS02004412    1.00   0.01  0.00  0.00  0.99  0.00  0.00  0.00  0.00  0.00
  WS02004412WS02004413    1.00   0.01  0.00  0.00  0.99  0.00  0.00  0.00  0.00  0.00
  WS02004413WS02003067    1.00   0.01  0.01  0.00  0.00  0.00  0.98  0.00  0.00  0.00
  WS02006109WS02006110    1.00   0.00  0.00  0.00  1.00  0.00  0.00  0.00  0.00  0.00
  WS02006110WS02006113    1.00   0.00  0.00  0.00  1.00  0.00  0.00  0.00  0.00  0.00
  WS02006111WS02006112    1.00   0.00  0.00  0.00  1.00  0.00  0.00  0.00  1.00  0.00
  WS02006112WS02006115    1.00   0.00  0.00  0.00  1.00  0.00  0.00  0.00  0.00  0.00
  WS02006113WS02006111    1.00   0.00  0.00  0.00  0.01  0.99  0.00  0.00  0.11  0.00
  WS02006115WS02006116    1.00   0.00  0.00  0.00  1.00  0.00  0.00  0.00  0.00  0.00
  WS02006116WS02004401    1.00   0.00  0.00  0.00  1.00  0.00  0.00  0.00  0.00  0.00
  WS02006228WS02006109    1.00   0.00  0.00  0.00  1.00  0.00  0.00  0.00  0.00  0.00
  WS02006229WS02006228    1.00   0.00  0.00  0.00  1.00  0.00  0.00  0.00  0.00  0.00
  WS02006230WS02006229    1.00   0.00  0.00  0.00  1.00  0.00  0.00  0.00  0.04  0.00
  WS02006231WS02006230    1.00   0.00  0.00  0.00  0.20  0.00  0.79  0.00  0.00  0.00
  WS02006232WS02006231    1.00   0.00  0.00  0.00  0.99  0.00  0.01  0.00  0.00  0.00
  WS02006234WS02006232    1.00   0.00  0.00  0.00  0.99  0.00  0.00  0.00  0.06  0.00
  WS02006235WS02006234    1.00   0.03  0.00  0.00  0.87  0.00  0.10  0.00  0.00  0.00
  WS02006238WS02006235    1.00   0.01  0.00  0.00  0.98  0.00  0.00  0.00  0.01  0.00
  WS02006239WS02006238    1.00   0.03  0.00  0.00  0.97  0.00  0.00  0.00  0.15  0.00
  WS02006240WS02006239    1.00   0.03  0.00  0.00  0.61  0.00  0.00  0.36  0.07  0.00
  WS02006242WS02006240    1.00   0.02  0.00  0.00  0.96  0.00  0.01  0.00  0.00  0.00
  WS02006243WS02006242    1.00   0.02  0.00  0.00  0.97  0.00  0.00  0.00  0.62  0.00
  WS02006245WS02006243    1.00   0.02  0.00  0.00  0.78  0.00  0.00  0.19  0.01  0.00
  WS02006247WS02006245    1.00   0.02  0.00  0.00  0.93  0.00  0.00  0.05  0.00  0.00
  WS02006248WS02006247    1.00   0.02  0.00  0.00  0.96  0.00  0.00  0.02  0.56  0.00
  WS02006249WS02006248    1.00   0.00  0.02  0.00  0.37  0.00  0.62  0.00  0.00  0.00
  WS02006251WS02006249    1.00   0.00  0.00  0.00  0.99  0.01  0.00  0.00  0.63  0.00
  WS02006252WS02006251    1.00   0.02  0.52  0.00  0.05  0.00  0.41  0.00  0.00  0.00
  WS02006256WS02006235    1.00   0.01  0.00  0.00  0.97  0.02  0.00  0.00  0.01  0.00
  WSF200WS02003060        1.00   0.00  0.03  0.00  0.52  0.45  0.00  0.00  0.72  0.00
  YS02001580YS02001583    1.00   0.27  0.59  0.00  0.15  0.00  0.00  0.00  0.68  0.00
  YS02001583YS02001586    1.00   0.50  0.30  0.00  0.20  0.00  0.00  0.00  0.68  0.00
  YS02001586YS02001590    1.00   0.13  0.00  0.00  0.37  0.04  0.00  0.46  0.35  0.00
  YS02001590YS02001593    1.00   0.13  0.01  0.00  0.07  0.00  0.80  0.00  0.00  0.00
  YS02001593YS02001596    1.00   0.14  0.00  0.00  0.08  0.01  0.00  0.77  0.02  0.00
  YS02001596YS02001600    1.00   0.14  0.00  0.00  0.15  0.01  0.00  0.70  0.06  0.00
  YS02001600YS02001601    1.00   0.13  0.01  0.00  0.86  0.00  0.00  0.00  0.65  0.00
  YS02001601YS02001602    1.00   0.13  0.01  0.00  0.86  0.00  0.00  0.00  0.00  0.00
  YS02001602YS02001605    1.00   0.14  0.00  0.00  0.86  0.00  0.00  0.00  0.00  0.00
  YS02001605YS02001607    1.00   0.14  0.00  0.00  0.86  0.00  0.00  0.00  0.00  0.00
  YS02001607YS02001610    1.00   0.13  0.01  0.00  0.86  0.00  0.00  0.00  0.02  0.00
  YS02001610YS02001613    1.00   0.13  0.00  0.00  0.87  0.00  0.00  0.00  0.01  0.00
  YS02001613YS02001616    1.00   0.13  0.00  0.00  0.87  0.00  0.00  0.00  0.01  0.00
  YS02001616YS02001619    1.00   0.13  0.00  0.00  0.87  0.00  0.00  0.00  0.00  0.00
  YS02001619YS02001622    1.00   0.13  0.00  0.00  0.87  0.00  0.00  0.00  0.35  0.00
  YS02001622YS02001625    1.00   0.13  0.00  0.00  0.87  0.00  0.00  0.00  0.06  0.00
  YS02001625YS02001629    1.00   0.13  0.06  0.00  0.10  0.00  0.71  0.00  0.00  0.00
  YS02001629YS02163301    1.00   0.16  0.01  0.00  0.83  0.00  0.00  0.00  0.00  0.00
  YS02001633YS02163601    1.00   0.00  0.01  0.00  0.99  0.00  0.00  0.00  0.15  0.00
  YS02001641YS02001644    1.00   0.00  0.01  0.00  0.99  0.00  0.00  0.00  0.00  0.00
  YS02001644YS02001647    1.00   0.00  0.19  0.00  0.81  0.00  0.00  0.00  0.00  0.00
  YS02001647YS02001649    1.00   0.00  0.18  0.00  0.52  0.30  0.00  0.00  0.60  0.00
  YS02001649YS02001757    1.00   0.00  0.00  0.00  0.68  0.32  0.00  0.00  0.57  0.00
  YS02001652YS02001649    1.00   0.00  0.00  0.00  0.96  0.04  0.00  0.00  0.80  0.00
  YS02001655YS02001652    1.00   0.00  0.00  0.00  0.12  0.02  0.00  0.86  0.06  0.00
  YS02001658YS02001655    1.00   0.00  0.14  0.00  0.61  0.24  0.00  0.00  0.77  0.00
  YS02001661YS02001658    1.00   0.14  0.00  0.00  0.48  0.38  0.00  0.00  0.77  0.00
  YS02001664YS02001661    1.00   0.13  0.00  0.00  0.77  0.11  0.00  0.00  0.87  0.00
  YS02001745YS02001748    1.00   0.00  0.00  0.00  0.02  0.01  0.00  0.97  0.03  0.00
  YS02001748YS02001751    1.00   0.00  0.00  0.00  0.79  0.21  0.00  0.00  0.81  0.00
  YS02001751YS02001754    1.00   0.00  0.00  0.00  0.08  0.01  0.00  0.91  0.03  0.00
  YS02001754YS02001757    1.00   0.00  0.00  0.00  1.00  0.00  0.00  0.00  0.90  0.00
  YS02001757CaochengTiaoxuchi    1.00   0.00  0.00  0.00  0.96  0.04  0.00  0.00  0.86  0.00
  YS02001759YS02001757    1.00   0.00  0.00  0.00  1.00  0.00  0.00  0.00  0.69  0.00
  YS02001762YS02001759    1.00   0.00  0.00  0.00  1.00  0.00  0.00  0.00  0.05  0.00
  YS02001765YS02001762    1.00   0.00  0.00  0.00  1.00  0.00  0.00  0.00  0.78  0.00
  YS02001767YS02001765    1.00   0.00  0.00  0.00  1.00  0.00  0.00  0.00  0.00  0.00
  YS02001770YS02001767    1.00   0.00  0.00  0.00  1.00  0.00  0.00  0.00  0.00  0.00
  YS02001774YS02001770    1.00   0.00  0.13  0.00  0.59  0.00  0.27  0.00  0.04  0.00
  YS02001779YS02001774    1.00   0.00  0.00  0.00  1.00  0.00  0.00  0.00  0.83  0.00
  YS02001783YS02001784    1.00   0.00  0.19  0.00  0.81  0.00  0.00  0.00  0.58  0.00
  YS02001784YS02001785    1.00   0.00  0.00  0.00  1.00  0.00  0.00  0.00  0.18  0.00
  YS02001786YS02001788    1.00   0.00  0.00  0.00  0.80  0.20  0.00  0.00  0.00  0.00
  YS02001788YS02001790    1.00   0.00  0.00  0.00  0.21  0.79  0.00  0.00  0.85  0.00
  YS02001790YS02001791    1.00   0.00  0.00  0.00  0.02  0.98  0.00  0.00  0.15  0.00
  YS02001791YS02001793    1.00   0.00  0.00  0.00  0.00  1.00  0.00  0.00  0.00  0.00
  YS02001793JiankangQianchi    1.00   0.00  0.00  0.00  0.99  0.01  0.00  0.00  0.98  0.00
  YS02001882YS02001884    1.00   0.16  0.01  0.00  0.83  0.00  0.00  0.00  0.00  0.00
  YS02001884YS02001887    1.00   0.06  0.05  0.00  0.89  0.00  0.00  0.00  0.00  0.00
  YS02001887YS02001890    1.00   0.00  0.00  0.00  0.97  0.00  0.03  0.00  0.00  0.00
  YS02001890YS02001895    1.00   0.00  0.17  0.00  0.82  0.00  0.00  0.00  0.00  0.00
  YS02001895YS02001898    1.00   0.18  0.00  0.00  0.80  0.00  0.02  0.00  0.00  0.00
  YS02001898YS02001901    1.00   0.18  0.00  0.00  0.82  0.00  0.00  0.00  0.01  0.00
  YS02001901YS02001904    1.00   0.18  0.00  0.00  0.82  0.00  0.00  0.00  0.00  0.00
  YS02001904YS02001907    1.00   0.00  0.17  0.00  0.82  0.00  0.00  0.00  0.00  0.00
  YS02001907YS02006553    1.00   0.00  0.02  0.00  0.98  0.00  0.00  0.00  0.00  0.00
  YS02001910YS02001907    1.00   0.00  0.00  0.00  0.97  0.00  0.00  0.03  0.12  0.00
  YS02001915YS02001910    1.00   0.00  0.00  0.00  0.96  0.04  0.00  0.00  0.18  0.00
  YS02001918YS02001915    1.00   0.00  0.00  0.00  0.98  0.02  0.00  0.00  0.80  0.00
  YS02001920YS02001918    1.00   0.00  0.00  0.00  1.00  0.00  0.00  0.00  0.01  0.00
  YS02001923YS02001920    1.00   0.00  0.00  0.00  1.00  0.00  0.00  0.00  0.96  0.00
  YS02001926YS02001923    1.00   0.00  0.07  0.00  0.03  0.00  0.90  0.00  0.00  0.00
  YS02001929YS02001926    1.00   0.00  0.13  0.00  0.87  0.00  0.00  0.00  0.85  0.00
  YS02006553YS02006556    1.00   0.01  0.00  0.00  0.99  0.00  0.00  0.00  0.03  0.00
  YS02006556YS02006558    1.00   0.00  0.00  0.00  1.00  0.00  0.00  0.00  0.00  0.00
  YS02006558YS02006561    1.00   0.19  0.00  0.00  0.02  0.78  0.00  0.00  0.18  0.00
  YS02006561YS02001783    1.00   0.19  0.00  0.00  0.05  0.76  0.00  0.00  0.72  0.00
  YS02163301YS02001633    1.00   0.00  0.16  0.00  0.84  0.00  0.00  0.00  0.00  0.00
  YS02163601YS02164001    1.00   0.00  0.08  0.00  0.92  0.00  0.00  0.00  0.00  0.00
  YS02164001YS02001641    1.00   0.01  0.07  0.00  0.92  0.00  0.00  0.00  0.06  0.00
  
  
  *************************
  Conduit Surcharge Summary
  *************************
  
  ----------------------------------------------------------------------------
                                                           Hours        Hours 
                         --------- Hours Full --------   Above Full   Capacity
  Conduit                Both Ends  Upstream  Dnstream   Normal Flow   Limited
  ----------------------------------------------------------------------------
  WS02003072WS02003073        0.01      0.01      0.01      0.49         0.01
  WS02004401WS02004402        0.01      0.01      0.01      0.01         0.01
  WS02004402WS02004403        0.01      0.01      0.01      0.01         0.01
  WS02004403WS02004404        0.01      0.01      0.01      0.01         0.01
  WS02004404WS02004405        0.01      0.01      0.01      2.58         0.01
  WS02004405WS02004406        0.01      0.01      0.01      0.26         0.01
  WS02006109WS02006110        0.25      0.26      1.23      0.34         0.01
  WS02006110WS02006113        0.01      0.01      1.18      0.01         0.01
  WS02006111WS02006112        0.01      0.01      1.92      0.01         0.01
  WS02006112WS02006115        0.01      0.01      0.38      0.01         0.01
  WS02006113WS02006111        0.01      0.01      0.01      0.01         0.01
  WS02006115WS02006116        0.01      0.01      0.01      0.01         0.01
  WS02006116WS02004401        0.01      0.01      0.01      0.01         0.01
  WS02006228WS02006109        1.10      1.25      1.10      2.02         1.10
  WS02006229WS02006228        1.10      1.12      1.10      1.76         1.09
  WS02006230WS02006229        1.47      1.69      1.47      2.91         1.47
  WS02006231WS02006230        0.26      0.26      0.39      2.61         0.01
  WS02006232WS02006231        0.36      0.36      1.26      0.41         0.01
  WS02006234WS02006232        1.06      1.06      1.26      0.39         0.37
  WS02006235WS02006234        0.57      0.57      1.09      2.41         0.01
  WS02006238WS02006235        1.13      1.13      1.26      0.01         0.01
  WS02006239WS02006238        1.12      1.17      1.16      1.32         0.96
  WS02006240WS02006239        1.09      1.12      1.10      1.29         0.90
  WS02006242WS02006240        1.11      1.11      1.30      1.57         0.01
  WS02006243WS02006242        1.10      1.10      1.21      0.01         0.02
  WS02006245WS02006243        1.06      1.07      1.09      0.99         0.77
  WS02006247WS02006245        1.05      1.09      1.05      2.16         1.04
  WS02006248WS02006247        1.04      1.04      1.07      0.01         0.03
  WS02006249WS02006248        1.03      1.03      1.05      2.11         0.01
  WS02006251WS02006249        1.04      1.05      1.05      1.40         0.99
  WS02006252WS02006251        1.47      1.47      1.49      1.48         0.01
  WS02006256WS02006235        2.44      2.51      6.40      0.95         0.01
  YS02001580YS02001583        0.26      0.26      0.31      0.01         0.01
  YS02001583YS02001586        0.27      0.27      0.38      0.01         0.01
  YS02001586YS02001590        0.38      0.38      0.44      0.01         0.01
  YS02001590YS02001593        0.44      0.44      0.45      0.46         0.01
  YS02001593YS02001596        0.45      0.45      0.53      0.01         0.01
  YS02001596YS02001600        0.57      0.57      0.65      0.01         0.01
  YS02001600YS02001601        0.71      0.71      1.00      0.01         0.01
  YS02001601YS02001602        0.88      0.88      1.05      0.67         0.01
  YS02001602YS02001605        0.82      0.82      0.88      1.88         0.01
  YS02001605YS02001607        0.78      0.82      0.78      0.95         0.78
  YS02001607YS02001610        0.39      0.39      0.41      0.01         0.01
  YS02001610YS02001613        0.38      0.38      0.41      0.01         0.01
  YS02001613YS02001616        0.35      0.35      0.38      0.01         0.01
  YS02001616YS02001619        0.34      0.34      0.35      0.01         0.01
  YS02001619YS02001622        0.34      0.34      0.34      0.47         0.33
  YS02001622YS02001625        0.34      0.34      0.49      0.01         0.01
  YS02001625YS02001629        0.28      0.28      0.49      0.01         0.01
  YS02001629YS02163301        0.47      0.47      0.48      0.25         0.23
  YS02001633YS02163601        0.50      0.50      0.52      0.39         0.39
  YS02001641YS02001644        0.38      0.41      0.38      1.11         0.38
  YS02001644YS02001647        0.20      0.20      0.38      0.04         0.01
  YS02001647YS02001649        0.20      0.20      0.26      0.01         0.01
  YS02001649YS02001757        0.25      0.26      0.27      0.22         0.17
  YS02001652YS02001649        0.14      0.14      0.26      0.01         0.01
  YS02001655YS02001652        0.02      0.02      0.12      0.01         0.01
  YS02001658YS02001655        0.01      0.01      0.02      0.01         0.01
  YS02001751YS02001754        0.01      0.01      0.03      0.01         0.01
  YS02001754YS02001757        0.04      0.04      0.27      0.01         0.01
  YS02001757CaochengTiaoxuchi        0.18      0.27      0.85      0.20         0.07
  YS02001759YS02001757        0.21      0.21      0.27      0.01         0.01
  YS02001762YS02001759        0.19      0.19      0.21      0.01         0.01
  YS02001765YS02001762        0.15      0.15      0.19      0.01         0.01
  YS02001767YS02001765        0.12      0.12      0.15      0.01         0.01
  YS02001770YS02001767        0.12      0.13      0.12      0.30         0.09
  YS02001774YS02001770        0.10      0.10      0.17      0.01         0.01
  YS02001779YS02001774        0.04      0.04      0.17      0.01         0.01
  YS02001783YS02001784        0.24      0.26      0.24      0.38         0.24
  YS02001784YS02001785        0.14      0.24      0.14      0.56         0.14
  YS02001786YS02001788        0.01      0.14      0.01      0.47         0.01
  YS02001790YS02001791        0.01      0.01      0.01      0.23         0.01
  YS02001793JiankangQianchi        0.01      0.01      6.24      0.01         0.01
  YS02001882YS02001884        0.22      0.22      0.22      0.01         0.01
  YS02001884YS02001887        0.24      0.24      0.25      0.01         0.01
  YS02001887YS02001890        0.26      0.26      0.28      0.01         0.01
  YS02001890YS02001895        0.21      0.21      0.29      0.01         0.01
  YS02001895YS02001898        0.20      0.20      0.21      0.01         0.01
  YS02001898YS02001901        0.21      0.21      0.24      0.01         0.01
  YS02001901YS02001904        0.23      0.23      0.24      0.01         0.01
  YS02001904YS02001907        0.23      0.23      0.45      0.01         0.01
  YS02001907YS02006553        0.56      0.56      0.62      0.01         0.01
  YS02001910YS02001907        0.28      0.28      0.44      0.01         0.01
  YS02001915YS02001910        0.21      0.21      0.28      0.01         0.01
  YS02001918YS02001915        0.14      0.14      0.21      0.01         0.01
  YS02001920YS02001918        0.14      0.14      0.15      0.01         0.01
  YS02001923YS02001920        0.07      0.07      0.15      0.01         0.01
  YS02001926YS02001923        0.01      0.01      0.01      0.01         0.01
  YS02001929YS02001926        0.01      0.01      0.01      0.01         0.01
  YS02006553YS02006556        0.36      0.36      0.45      0.01         0.01
  YS02006556YS02006558        0.40      0.40      0.46      0.01         0.01
  YS02006558YS02006561        0.17      0.35      0.17      0.52         0.17
  YS02006561YS02001783        0.10      0.10      0.26      0.01         0.01
  YS02163301YS02001633        0.48      0.48      0.52      0.01         0.01
  YS02163601YS02164001        0.43      0.43      0.52      0.19         0.01
  YS02164001YS02001641        0.41      0.43      0.41      0.56         0.41
  
  
  ***************
  Pumping Summary
  ***************
  
  ---------------------------------------------------------------------------------------------------------
                                                  Min       Avg       Max     Total     Power    % Time Off
                        Percent   Number of      Flow      Flow      Flow    Volume     Usage    Pump Curve
  Pump                 Utilized   Start-Ups       LPS       LPS       LPS  10^6 ltr     Kw-hr    Low   High
  ---------------------------------------------------------------------------------------------------------
  CC-R1                   18.06          23      0.00    683.00    683.00     3.553     62.24    0.0   57.8
  CC-R2                    8.95          21      0.00    683.00    683.00     1.761     31.18    0.0   39.8
  CC-S1                   24.34          21      0.00    200.00    200.00     1.402      8.99    0.0    0.0
  CC-S2                   22.46          21      0.00    200.00    200.00     1.294      8.33    0.0    0.0
  JK-R1                    4.66          11      0.00   1000.00   1000.00     1.342     14.18    0.0    0.0
  JK-R2                    1.68          12      0.00   1000.00   1000.00     0.483      3.35    0.0    0.0
  JK-S                    11.20          45      0.00    300.00    300.00     0.968     16.85    0.0    0.0
  

  Analysis begun on:  Fri Aug  4 07:05:17 2023
  Analysis ended on:  Fri Aug  4 07:05:21 2023
  Total elapsed time: 00:00:04