
  OWA STORM WATER MANAGEMENT MODEL - VERSION v5.2.3 (OWA 2023-06-06)
  ------------------------------------------------------------

  WARNING 04: minimum elevation drop used for Conduit WS02004404WS02004405
  WARNING 03: negative offset ignored for Link YS02001904YS02001907
  
  ****************
  Analysis Options
  ****************
  Flow Units ............... LPS
  Process Models:
    Rainfall/Runoff ........ YES
    RDII ................... NO
    Snowmelt ............... NO
    Groundwater ............ NO
    Flow Routing ........... YES
    Ponding Allowed ........ NO
    Water Quality .......... NO
  Infiltration Method ...... HORTON
  Flow Routing Method ...... DYNWAVE
  Surcharge Method ......... EXTRAN
  Starting Date ............ 08/28/2015 08:00:00
  Ending Date .............. 08/28/2015 16:00:00
  Antecedent Dry Days ...... 8.0
  Report Time Step ......... 00:01:00
  Wet Time Step ............ 00:01:00
  Dry Time Step ............ 00:01:00
  Routing Time Step ........ 30.00 sec
  Variable Time Step ....... YES
  Maximum Trials ........... 8
  Number of Threads ........ 2
  Head Tolerance ........... 0.001500 m
  
  
  **************************        Volume         Depth
  Runoff Quantity Continuity     hectare-m            mm
  **************************     ---------       -------
  Initial LID Storage ......         0.049         1.488
  Total Precipitation ......         1.680        50.640
  Evaporation Loss .........         0.000         0.000
  Infiltration Loss ........         0.075         2.258
  Surface Runoff ...........         1.225        36.943
  Final Storage ............         0.430        12.949
  Continuity Error (%) .....        -0.043
  
  
  **************************        Volume        Volume
  Flow Routing Continuity        hectare-m      10^6 ltr
  **************************     ---------     ---------
  Dry Weather Inflow .......         0.025         0.251
  Wet Weather Inflow .......         1.225        12.253
  Groundwater Inflow .......         0.000         0.000
  RDII Inflow ..............         0.000         0.000
  External Inflow ..........         0.083         0.834
  External Outflow .........         1.213        12.126
  Flooding Loss ............         0.213         2.133
  Evaporation Loss .........         0.000         0.000
  Exfiltration Loss ........         0.000         0.000
  Initial Stored Volume ....         0.243         2.431
  Final Stored Volume ......         0.181         1.814
  Continuity Error (%) .....        -1.927
  
  
  *************************
  Highest Continuity Errors
  *************************
  Node YS02001884 (5.00%)
  Node YS02001583 (-4.59%)
  Node WS02006256 (-4.38%)
  Node YS02001774 (1.68%)
  Node WS02006249 (1.14%)
  
  
  ***************************
  Time-Step Critical Elements
  ***************************
  Link WS02006252WS02006251 (38.53%)
  Link WS02006238WS02006235 (23.98%)
  Link WS02004404WS02004405 (15.14%)
  Link WS02003066WSF200 (4.90%)
  Link YS02001791YS02001793 (4.45%)
  
  
  ********************************
  Highest Flow Instability Indexes
  ********************************
  Link WS02006113WS02006111 (35)
  Link WS02006256WS02006235 (20)
  Link WS02006238WS02006235 (16)
  Link WS02004404WS02004405 (16)
  Link WS02006252WS02006251 (14)
  
  
  *********************************
  Most Frequent Nonconverging Nodes
  *********************************
  Node CC-1 (10.16%)
  Node CC-2 (10.16%)
  Node JK-1 (10.16%)
  Node JK-2 (10.16%)
  Node WSC (10.16%)
  
  
  *************************
  Routing Time Step Summary
  *************************
  Minimum Time Step           :     0.01 sec
  Average Time Step           :     2.45 sec
  Maximum Time Step           :    30.00 sec
  % of Time in Steady State   :     0.00
  Average Iterations per Step :     3.03
  % of Steps Not Converging   :    10.16
  Time Step Frequencies       :
     30.000 - 13.228 sec      :     0.01 %
     13.228 -  5.833 sec      :    12.12 %
      5.833 -  2.572 sec      :    26.48 %
      2.572 -  1.134 sec      :    19.12 %
      1.134 -  0.500 sec      :    42.27 %
  
  
  ***************************
  Subcatchment Runoff Summary
  ***************************
  
  ------------------------------------------------------------------------------------------------------------------------------
                            Total      Total      Total      Total     Imperv       Perv      Total       Total     Peak  Runoff
                           Precip      Runon       Evap      Infil     Runoff     Runoff     Runoff      Runoff   Runoff   Coeff
  Subcatchment                 mm         mm         mm         mm         mm         mm         mm    10^6 ltr      LPS
  ------------------------------------------------------------------------------------------------------------------------------
  sub60                     50.64       0.00       0.00       1.33      33.47       3.37      36.83        0.48   372.16   0.727
  sub61                     50.64       0.00       0.00       2.04      33.44       5.00      38.44        0.71   543.55   0.759
  sub62                     50.64       0.00       0.00       0.90      35.64       2.29      37.93        1.04   743.92   0.749
  sub63                     50.64       0.00       0.00       3.78      28.64       8.24      36.88        0.84   619.17   0.728
  sub64                     50.64       0.00       0.00       1.81      32.60       4.11      36.72        0.88   606.30   0.725
  sub65                     50.64       0.00       0.00       1.66      35.19       3.75      38.94        1.07   706.01   0.769
  sub66                     50.64       0.00       0.00       4.45      27.68       7.19      34.87        1.63   919.14   0.689
  sub67                     50.64       0.00       0.00       0.89      36.55       2.37      38.92        0.72   574.09   0.769
  sub68                     50.64       0.00       0.00       1.57      32.27       3.83      36.11        0.99   742.04   0.713
  sub69                     50.64       0.00       0.00       1.43      34.03       4.58      38.62        1.43   912.94   0.763
  sub70                     50.64       0.00       0.00       4.90      27.25       9.20      36.46        1.05   529.77   0.720
  sub71                     50.64       0.00       0.00       0.83      32.38       2.06      34.44        0.90   612.30   0.680
  sub72                     50.64       0.00       0.00       0.80      34.96       1.91      36.88        0.51   314.24   0.728
  

  ***********************
  LID Performance Summary
  ***********************

  --------------------------------------------------------------------------------------------------------------------
                                         Total      Evap     Infil   Surface    Drain    Initial     Final  Continuity
                                        Inflow      Loss      Loss   Outflow   Outflow   Storage   Storage       Error
  Subcatchment      LID Control             mm        mm        mm        mm        mm        mm        mm           %
  --------------------------------------------------------------------------------------------------------------------
  sub60             GreenRoof            50.64      0.00      0.00      0.00      0.00      7.05     57.75       -0.10
  sub61             GreenRoof            50.64      0.00      0.00      0.00      0.00      7.05     57.75       -0.10
  sub62             GreenRoof            50.64      0.00      0.00      0.00      0.00      7.05     57.75       -0.10
  sub63             GreenRoof            50.64      0.00      0.00      0.00      0.00      7.05     57.75       -0.10
  sub64             GreenRoof            50.64      0.00      0.00      0.00      0.00      7.05     57.75       -0.10
  sub65             GreenRoof            50.64      0.00      0.00      0.00      0.00      7.05     57.75       -0.10
  sub66             GreenRoof            50.64      0.00      0.00      0.00      0.00      7.05     57.75       -0.10
  sub67             GreenRoof            50.64      0.00      0.00      0.00      0.00      7.05     57.75       -0.10
  sub68             GreenRoof            50.64      0.00      0.00      0.00      0.00      7.05     57.75       -0.10
  sub69             GreenRoof            50.64      0.00      0.00      0.00      0.00      7.05     57.75       -0.10
  sub70             GreenRoof            50.64      0.00      0.00      0.00      0.00      7.05     57.75       -0.10
  sub71             GreenRoof            50.64      0.00      0.00      0.00      0.00      7.05     57.75       -0.10
  sub72             GreenRoof            50.64      0.00      0.00      0.00      0.00      7.05     57.75       -0.10
  
  ******************
  Node Depth Summary
  ******************
  
  ---------------------------------------------------------------------------------
                                 Average  Maximum  Maximum  Time of Max    Reported
                                   Depth    Depth      HGL   Occurrence   Max Depth
  Node                 Type       Meters   Meters   Meters  days hr:min      Meters
  ---------------------------------------------------------------------------------
  WS02003060           JUNCTION     0.20     0.38     5.32     0  02:48        0.38
  WS02003066           JUNCTION     0.17     0.30     5.85     0  02:48        0.30
  WS02003067           JUNCTION     0.47     0.70     6.02     0  02:48        0.70
  WS02003069           JUNCTION     0.22     0.43     5.01     0  02:48        0.43
  WS02003072           JUNCTION     0.29     0.50     4.87     0  02:48        0.50
  WS02003073           JUNCTION     0.16     0.30     4.36     0  02:49        0.30
  WS02004401           JUNCTION     0.55     0.88     6.88     0  02:45        0.87
  WS02004402           JUNCTION     0.59     0.91     6.87     0  02:45        0.90
  WS02004403           JUNCTION     0.61     0.93     6.86     0  02:45        0.92
  WS02004404           JUNCTION     0.69     1.09     6.94     0  02:45        1.00
  WS02004405           JUNCTION     0.68     0.97     6.82     0  02:45        0.97
  WS02004406           JUNCTION     0.70     0.96     6.79     0  02:44        0.96
  WS02004407           JUNCTION     0.15     0.30     6.61     0  02:45        0.30
  WS02004409           JUNCTION     0.34     0.67     6.44     0  02:46        0.67
  WS02004410           JUNCTION     0.37     0.68     6.40     0  02:46        0.68
  WS02004411           JUNCTION     0.39     0.69     6.37     0  02:47        0.69
  WS02004412           JUNCTION     0.42     0.70     6.34     0  02:47        0.70
  WS02004413           JUNCTION     0.59     0.86     6.33     0  02:47        0.86
  WS02006109           JUNCTION     0.59     1.13     7.75     0  02:27        1.11
  WS02006110           JUNCTION     0.60     1.17     7.75     0  02:36        1.14
  WS02006111           JUNCTION     0.15     0.90     7.60     0  00:00        0.40
  WS02006112           JUNCTION     0.70     2.68     8.56     0  00:00        1.14
  WS02006113           JUNCTION     0.23     1.40     8.29     0  00:00        0.46
  WS02006115           JUNCTION     0.43     1.65     7.79     0  00:00        0.86
  WS02006116           JUNCTION     0.52     1.06     7.10     0  00:00        0.85
  WS02006228           JUNCTION     0.57     1.16     7.81     0  02:26        1.08
  WS02006229           JUNCTION     0.54     1.20     7.90     0  02:26        1.17
  WS02006230           JUNCTION     0.53     1.37     8.11     0  02:36        1.17
  WS02006231           JUNCTION     0.35     1.21     8.33     0  02:35        0.93
  WS02006232           JUNCTION     0.47     1.59     8.63     0  03:15        1.14
  WS02006234           JUNCTION     0.38     1.92     9.08     0  03:15        1.17
  WS02006235           JUNCTION     0.41     1.89     9.05     0  03:15        1.31
  WS02006238           JUNCTION     0.44     1.92     9.06     0  03:15        1.32
  WS02006239           JUNCTION     0.40     1.83     9.04     0  03:15        1.31
  WS02006240           JUNCTION     0.36     1.70     9.00     0  03:15        1.27
  WS02006242           JUNCTION     0.42     1.55     8.82     0  03:15        1.34
  WS02006243           JUNCTION     0.34     1.38     8.80     0  03:15        1.22
  WS02006245           JUNCTION     0.34     1.30     8.78     0  03:15        1.18
  WS02006247           JUNCTION     0.36     1.25     8.75     0  03:15        1.18
  WS02006248           JUNCTION     0.32     1.10     8.69     0  02:27        1.10
  WS02006249           JUNCTION     0.36     1.09     8.69     0  02:24        1.09
  WS02006251           JUNCTION     0.35     1.26     8.93     0  02:30        1.13
  WS02006252           JUNCTION     0.27     1.50     9.74     0  02:15        0.74
  WS02006256           JUNCTION     0.84     2.35     9.28     0  00:05        2.35
  WSF200               JUNCTION     0.14     0.29     5.52     0  02:48        0.29
  YS02001580           JUNCTION     0.06     1.05     9.59     0  02:18        0.77
  YS02001583           JUNCTION     0.09     1.03     9.53     0  02:18        0.82
  YS02001586           JUNCTION     0.16     1.13     9.30     0  02:18        1.13
  YS02001590           JUNCTION     0.25     1.40     9.26     0  02:20        1.40
  YS02001593           JUNCTION     0.18     1.35     9.21     0  02:20        1.35
  YS02001596           JUNCTION     0.24     1.72     9.14     0  02:35        1.72
  YS02001600           JUNCTION     0.30     1.87     9.00     0  02:20        1.87
  YS02001601           JUNCTION     0.49     2.06     8.90     0  02:17        2.06
  YS02001602           JUNCTION     0.41     1.87     8.77     0  02:18        1.87
  YS02001605           JUNCTION     0.38     1.78     8.68     0  02:18        1.78
  YS02001607           JUNCTION     0.38     1.64     8.49     0  02:30        1.64
  YS02001610           JUNCTION     0.42     1.68     8.48     0  02:18        1.68
  YS02001613           JUNCTION     0.38     1.66     8.50     0  02:18        1.65
  YS02001616           JUNCTION     0.31     1.59     8.50     0  02:35        1.59
  YS02001619           JUNCTION     0.29     1.59     8.51     0  02:23        1.57
  YS02001622           JUNCTION     0.28     1.56     8.46     0  02:23        1.55
  YS02001625           JUNCTION     0.52     1.78     8.38     0  02:18        1.78
  YS02001629           JUNCTION     0.39     1.85     8.40     0  02:18        1.85
  YS02001633           JUNCTION     0.46     2.08     8.53     0  02:18        2.08
  YS02001641           JUNCTION     0.45     1.96     8.39     0  02:22        1.94
  YS02001644           JUNCTION     0.44     1.92     8.35     0  02:23        1.92
  YS02001647           JUNCTION     0.23     1.72     8.33     0  02:24        1.70
  YS02001649           JUNCTION     0.26     1.87     8.26     0  02:25        1.87
  YS02001652           JUNCTION     0.16     1.90     8.50     0  02:23        1.68
  YS02001655           JUNCTION     0.11     1.90     8.75     0  02:23        1.45
  YS02001658           JUNCTION     0.08     1.59     8.73     0  02:24        1.18
  YS02001661           JUNCTION     0.12     1.01     8.42     0  02:25        0.94
  YS02001664           JUNCTION     0.05     0.46     8.38     0  02:25        0.42
  YS02001745           JUNCTION     0.05     0.67     8.19     0  02:24        0.60
  YS02001748           JUNCTION     0.07     1.36     8.44     0  02:24        1.15
  YS02001751           JUNCTION     0.09     1.40     8.28     0  02:24        1.36
  YS02001754           JUNCTION     0.13     1.61     8.22     0  02:23        1.59
  YS02001757           JUNCTION     0.27     1.88     8.14     0  02:25        1.88
  YS02001759           JUNCTION     0.21     1.86     8.22     0  02:25        1.85
  YS02001762           JUNCTION     0.20     1.85     8.25     0  02:25        1.82
  YS02001765           JUNCTION     0.19     1.83     8.28     0  02:25        1.79
  YS02001767           JUNCTION     0.19     1.82     8.31     0  02:25        1.77
  YS02001770           JUNCTION     0.20     1.95     8.45     0  02:22        1.82
  YS02001774           JUNCTION     0.26     1.96     8.38     0  02:24        1.89
  YS02001779           JUNCTION     0.11     1.68     8.37     0  02:22        1.62
  YS02001783           JUNCTION     0.20     1.31     7.45     0  02:22        1.22
  YS02001784           JUNCTION     0.22     1.17     7.24     0  02:22        1.11
  YS02001786           JUNCTION     0.19     0.92     6.95     0  02:22        0.87
  YS02001788           JUNCTION     0.13     0.62     6.60     0  02:24        0.62
  YS02001790           JUNCTION     0.16     0.72     6.37     0  02:24        0.72
  YS02001791           JUNCTION     0.10     0.43     5.90     0  02:26        0.43
  YS02001793           JUNCTION     0.05     0.29     5.12     0  02:31        0.27
  YS02001882           JUNCTION     0.25     1.65     8.37     0  02:22        1.63
  YS02001884           JUNCTION     0.34     1.75     8.36     0  02:22        1.73
  YS02001887           JUNCTION     0.41     1.81     8.35     0  02:22        1.80
  YS02001890           JUNCTION     0.44     1.81     8.32     0  02:22        1.81
  YS02001895           JUNCTION     0.23     1.57     8.31     0  02:22        1.56
  YS02001898           JUNCTION     0.23     1.56     8.30     0  02:22        1.56
  YS02001901           JUNCTION     0.34     1.67     8.28     0  02:26        1.67
  YS02001904           JUNCTION     0.32     1.64     8.27     0  02:22        1.63
  YS02001907           JUNCTION     0.62     1.96     8.25     0  02:22        1.96
  YS02001910           JUNCTION     0.43     1.95     8.46     0  02:23        1.81
  YS02001915           JUNCTION     0.25     1.91     8.63     0  02:23        1.65
  YS02001918           JUNCTION     0.12     1.81     8.88     0  02:23        1.31
  YS02001920           JUNCTION     0.20     2.14     9.15     0  02:23        1.37
  YS02001923           JUNCTION     0.09     2.03     9.29     0  02:23        1.13
  YS02001926           JUNCTION     0.13     1.90     9.35     0  02:23        0.98
  YS02001929           JUNCTION     0.07     1.78     9.47     0  02:23        0.87
  YS02006553           JUNCTION     0.63     1.97     8.26     0  02:22        1.96
  YS02006556           JUNCTION     0.60     1.95     8.26     0  02:22        1.93
  YS02006558           JUNCTION     0.64     2.00     8.26     0  02:22        1.98
  YS02006561           JUNCTION     0.12     0.99     7.65     0  02:22        0.88
  YS02163301           JUNCTION     0.41     2.03     8.55     0  02:18        2.03
  YS02163601           JUNCTION     0.50     2.08     8.48     0  02:18        2.08
  YS02164001           JUNCTION     0.43     1.99     8.45     0  02:22        1.95
  CC-1                 OUTFALL      0.00     0.00     0.00     0  00:00        0.00
  CC-2                 OUTFALL      0.00     0.00     0.00     0  00:00        0.00
  JK-1                 OUTFALL      0.00     0.00     0.00     0  00:00        0.00
  JK-2                 OUTFALL      0.00     0.00     0.00     0  00:00        0.00
  WSC                  OUTFALL      0.16     0.30     0.97     0  02:50        0.30
  CC-storage           STORAGE      0.70     1.40     6.90     0  02:41        1.40
  JK-storage           STORAGE      1.41     4.22     5.02     0  02:30        4.18
  
  
  *******************
  Node Inflow Summary
  *******************
  
  -------------------------------------------------------------------------------------------------
                                  Maximum  Maximum                  Lateral       Total        Flow
                                  Lateral    Total  Time of Max      Inflow      Inflow     Balance
                                   Inflow   Inflow   Occurrence      Volume      Volume       Error
  Node                 Type           LPS      LPS  days hr:min    10^6 ltr    10^6 ltr     Percent
  -------------------------------------------------------------------------------------------------
  WS02003060           JUNCTION     16.53   554.19     0  02:48       0.476        3.84       0.068
  WS02003066           JUNCTION      0.00   536.85     0  02:48           0        3.37       0.042
  WS02003067           JUNCTION      0.00   536.83     0  02:47           0        3.37       0.126
  WS02003069           JUNCTION      0.32   553.28     0  02:49     0.00922        3.85       0.107
  WS02003072           JUNCTION      0.00   552.64     0  02:48           0        3.84       0.185
  WS02003073           JUNCTION      1.82   554.40     0  02:49      0.0524        3.89       0.151
  WS02004401           JUNCTION      0.00  1677.78     0  00:00           0        3.48       0.335
  WS02004402           JUNCTION      0.00  1171.33     0  00:01           0        3.47       0.328
  WS02004403           JUNCTION      0.00   884.75     0  00:01           0        3.46       0.319
  WS02004404           JUNCTION      0.16   832.59     0  00:01     0.00467        3.45       0.265
  WS02004405           JUNCTION      0.04   776.49     0  00:01      0.0011        3.44       0.329
  WS02004406           JUNCTION      0.00   711.76     0  00:02           0        3.43       0.642
  WS02004407           JUNCTION      0.00   539.92     0  02:44           0        3.41       0.037
  WS02004409           JUNCTION      0.00   538.91     0  02:45           0        3.41       0.085
  WS02004410           JUNCTION      0.00   538.23     0  02:45           0         3.4       0.137
  WS02004411           JUNCTION      0.00   537.80     0  02:47           0         3.4       0.175
  WS02004412           JUNCTION      0.00   537.22     0  02:47           0        3.39       0.225
  WS02004413           JUNCTION      0.00   537.86     0  02:47           0        3.39       0.407
  WS02006109           JUNCTION      1.23  1308.01     0  00:00      0.0354        3.42       0.305
  WS02006110           JUNCTION      0.00   557.29     0  02:27           0        3.38      -1.057
  WS02006111           JUNCTION      0.00  1176.04     0  00:00           0        3.41      -1.119
  WS02006112           JUNCTION      0.00  2307.30     0  00:00           0        3.45      -0.006
  WS02006113           JUNCTION      0.00   565.55     0  02:25           0        3.37      -1.455
  WS02006115           JUNCTION      0.00   899.27     0  00:00           0        3.43      -0.931
  WS02006116           JUNCTION      0.00  1098.16     0  00:01           0        3.46      -0.662
  WS02006228           JUNCTION      0.00   555.33     0  02:36           0        3.36       0.148
  WS02006229           JUNCTION      0.00   555.66     0  02:36           0        3.35       0.284
  WS02006230           JUNCTION     10.28   591.73     0  02:30       0.296        3.33       0.014
  WS02006231           JUNCTION      0.00   578.67     0  02:26           0        3.03       0.100
  WS02006232           JUNCTION      0.00   577.86     0  02:26           0        3.03       0.228
  WS02006234           JUNCTION      0.00   572.73     0  02:26           0        3.02      -0.418
  WS02006235           JUNCTION      0.00   565.57     0  02:26           0        3.16       0.434
  WS02006238           JUNCTION      0.00   424.10     0  02:45           0        2.51      -0.220
  WS02006239           JUNCTION      0.00   434.18     0  02:20           0        2.42      -0.257
  WS02006240           JUNCTION      0.00   422.87     0  02:21           0        2.38      -0.006
  WS02006242           JUNCTION      0.00   422.62     0  02:21           0        2.35       0.077
  WS02006243           JUNCTION      0.00   422.68     0  02:21           0        2.32      -0.559
  WS02006245           JUNCTION      0.00   423.77     0  02:21           0        2.33       0.774
  WS02006247           JUNCTION      0.00   424.45     0  02:21           0        2.33      -0.033
  WS02006248           JUNCTION      0.00   425.71     0  02:21           0        2.33      -0.179
  WS02006249           JUNCTION      0.00   507.86     0  02:15           0        2.45       1.153
  WS02006251           JUNCTION      0.08   403.87     0  02:55     0.00222        2.45      -0.005
  WS02006252           JUNCTION      0.00   400.00     0  01:15           0        2.43      -0.644
  WS02006256           JUNCTION      0.00   300.00     0  00:05           0       0.935      -4.200
  WSF200               JUNCTION      0.00   537.01     0  02:48           0        3.37       0.015
  YS02001580           JUNCTION      0.00   106.30     0  02:18           0     0.00416      -0.968
  YS02001583           JUNCTION      0.00   156.03     0  02:18           0      0.0152      -4.393
  YS02001586           JUNCTION    529.77   529.77     0  02:26        1.05        1.06       0.111
  YS02001590           JUNCTION      0.00   317.84     0  02:31           0       0.947      -0.039
  YS02001593           JUNCTION      0.00   317.95     0  02:23           0       0.948       0.021
  YS02001596           JUNCTION      0.00   318.01     0  02:26           0       0.948      -0.006
  YS02001600           JUNCTION      0.00   317.98     0  02:26           0       0.948       0.014
  YS02001601           JUNCTION    912.94  1230.41     0  02:25        1.43        2.38       0.033
  YS02001602           JUNCTION      0.00   506.08     0  02:17           0        1.74       0.020
  YS02001605           JUNCTION      0.00   505.56     0  02:17           0        1.69       0.035
  YS02001607           JUNCTION      0.00   505.35     0  02:17           0        1.69       0.109
  YS02001610           JUNCTION      0.00   504.60     0  02:17           0         1.7       0.130
  YS02001613           JUNCTION      0.00   507.88     0  02:17           0         1.5       0.096
  YS02001616           JUNCTION      0.00   505.60     0  02:17           0         1.5       0.020
  YS02001619           JUNCTION    919.14   940.71     0  02:21        1.63        3.11      -0.010
  YS02001622           JUNCTION      0.00   939.11     0  02:21           0         3.1      -0.002
  YS02001625           JUNCTION      0.00   972.49     0  02:26           0        3.11       0.286
  YS02001629           JUNCTION      0.00   938.78     0  02:21           0        2.76       0.016
  YS02001633           JUNCTION    706.21  1402.25     0  02:21        1.08        3.81       0.087
  YS02001641           JUNCTION      0.00  1404.11     0  02:21           0         3.8       0.070
  YS02001644           JUNCTION    606.34  1806.31     0  02:21       0.883        4.68       0.066
  YS02001647           JUNCTION      0.00  1806.73     0  02:21           0        4.65       0.009
  YS02001649           JUNCTION      0.00  2039.32     0  02:20           0        5.49       0.002
  YS02001652           JUNCTION      0.00   701.44     0  02:25           0       0.842      -0.086
  YS02001655           JUNCTION      0.15   700.54     0  02:25     0.00443       0.842       0.076
  YS02001658           JUNCTION      0.00   698.80     0  02:25           0       0.837      -0.079
  YS02001661           JUNCTION      0.00   787.57     0  02:25           0       0.837       0.016
  YS02001664           JUNCTION    619.17   619.17     0  02:25       0.837       0.837      -0.009
  YS02001745           JUNCTION    372.16   372.16     0  02:25       0.484       0.484       0.279
  YS02001748           JUNCTION      0.04   516.41     0  02:24      0.0013       0.484      -0.424
  YS02001751           JUNCTION      0.01   399.90     0  02:25    0.000317        0.49       0.179
  YS02001754           JUNCTION      0.26   399.50     0  02:25     0.00749       0.502      -0.238
  YS02001757           JUNCTION      0.00  3408.20     0  02:25           0        7.76       0.058
  YS02001759           JUNCTION    543.59  1283.45     0  02:25       0.706        1.76      -0.006
  YS02001762           JUNCTION      0.00   743.53     0  02:25           0        1.06       0.011
  YS02001765           JUNCTION      0.00   744.10     0  02:25           0        1.06       0.005
  YS02001767           JUNCTION      0.54   743.49     0  02:25      0.0154        1.06       0.002
  YS02001770           JUNCTION    744.08   744.08     0  02:25        1.04        1.08       0.002
  YS02001774           JUNCTION      0.00   312.57     0  02:22           0      0.0583       1.712
  YS02001779           JUNCTION      0.01   328.54     0  02:22    0.000144      0.0172      -2.737
  YS02001783           JUNCTION      0.00  1155.52     0  02:24           0        2.83       0.008
  YS02001784           JUNCTION      1.06  1156.40     0  02:24      0.0305        2.86       0.017
  YS02001786           JUNCTION      0.06  1156.67     0  02:24     0.00162        2.86       0.022
  YS02001788           JUNCTION      0.07  1156.57     0  02:24     0.00204        2.86       0.010
  YS02001790           JUNCTION      0.15  1167.18     0  02:24     0.00446        2.86       0.015
  YS02001791           JUNCTION      0.00  1286.05     0  02:24           0        2.86      -0.011
  YS02001793           JUNCTION      0.00  1247.50     0  02:24           0        2.86       0.007
  YS02001882           JUNCTION      0.00    43.46     0  02:20           0      0.0122       4.522
  YS02001884           JUNCTION      0.00    73.27     0  02:20           0      0.0479       5.260
  YS02001887           JUNCTION    574.54   574.76     0  02:25       0.737        0.77       0.555
  YS02001890           JUNCTION      0.00   574.58     0  02:25           0        0.73       0.683
  YS02001895           JUNCTION      0.00   512.74     0  02:26           0       0.716       0.185
  YS02001898           JUNCTION      0.00   513.09     0  02:26           0       0.715       0.050
  YS02001901           JUNCTION      0.00   513.76     0  02:26           0       0.717       0.441
  YS02001904           JUNCTION      0.00   512.89     0  02:26           0       0.721       0.383
  YS02001907           JUNCTION      0.00  1500.17     0  02:24           0         2.2       0.808
  YS02001910           JUNCTION      0.00  1004.63     0  02:24           0        1.49       0.476
  YS02001915           JUNCTION    612.32  1004.06     0  02:24       0.901        1.53       0.099
  YS02001918           JUNCTION      0.00   439.13     0  02:23           0       0.652       0.056
  YS02001920           JUNCTION      2.87   438.52     0  02:23      0.0827       0.636       0.159
  YS02001923           JUNCTION      0.04   417.65     0  02:23     0.00109       0.538      -0.105
  YS02001926           JUNCTION      0.05   473.37     0  02:22      0.0015       0.519      -0.027
  YS02001929           JUNCTION    314.24   361.89     0  02:22       0.507       0.508      -0.020
  YS02006553           JUNCTION      0.00   803.72     0  02:35           0        1.85       0.631
  YS02006556           JUNCTION      0.00   800.79     0  02:35           0        1.86       0.435
  YS02006558           JUNCTION    742.92  1164.69     0  02:22        1.02        2.85       0.121
  YS02006561           JUNCTION      0.00  1164.20     0  02:22           0        2.83      -0.002
  YS02163301           JUNCTION      0.00   938.07     0  02:21           0        2.75       0.054
  YS02163601           JUNCTION      0.11  1402.13     0  02:21     0.00317         3.8       0.126
  YS02164001           JUNCTION      0.00  1402.84     0  02:21           0         3.8       0.056
  CC-1                 OUTFALL       0.00   683.00     0  00:05           0        3.87       0.000
  CC-2                 OUTFALL       0.00   683.00     0  00:10           0        2.32       0.000
  JK-1                 OUTFALL       0.00  1000.00     0  01:55           0        1.28       0.000
  JK-2                 OUTFALL       0.00  1000.00     0  00:10           0       0.781       0.000
  WSC                  OUTFALL       0.00   554.36     0  02:50           0        3.88       0.000
  CC-storage           STORAGE       0.00  3408.82     0  02:25           0        9.98      -0.301
  JK-storage           STORAGE       0.00  1243.38     0  02:29           0        3.01      -0.562
  
  
  **********************
  Node Surcharge Summary
  **********************
  
  Surcharging occurs when water rises above the top of the highest conduit.
  ---------------------------------------------------------------------
                                               Max. Height   Min. Depth
                                   Hours       Above Crown    Below Rim
  Node                 Type      Surcharged         Meters       Meters
  ---------------------------------------------------------------------
  WS02004404           JUNCTION        0.01          0.089        2.691
  WS02006109           JUNCTION        0.93          0.309        1.511
  WS02006110           JUNCTION        0.34          0.257        1.593
  WS02006111           JUNCTION        0.01          0.087        1.783
  WS02006112           JUNCTION        0.44          1.680        0.000
  WS02006113           JUNCTION        0.01          0.600        1.330
  WS02006115           JUNCTION        0.01          0.642        1.608
  WS02006116           JUNCTION        0.01          0.000        2.290
  WS02006228           JUNCTION        0.91          0.333        1.867
  WS02006229           JUNCTION        0.94          0.402        2.048
  WS02006230           JUNCTION        0.33          0.289        1.281
  WS02006231           JUNCTION        0.40          0.496        1.034
  WS02006232           JUNCTION        0.98          0.886        0.594
  WS02006234           JUNCTION        0.52          1.205        0.035
  WS02006235           JUNCTION        0.92          1.177        0.113
  WS02006238           JUNCTION        0.94          1.195        0.235
  WS02006239           JUNCTION        0.93          1.088        0.202
  WS02006240           JUNCTION        0.94          0.994        0.396
  WS02006242           JUNCTION        0.98          0.820        0.000
  WS02006243           JUNCTION        0.95          0.674        0.096
  WS02006245           JUNCTION        0.93          0.588        0.262
  WS02006247           JUNCTION        0.93          0.542        0.218
  WS02006248           JUNCTION        0.92          0.380        0.000
  WS02006249           JUNCTION        0.92          0.390        0.000
  WS02006251           JUNCTION        0.43          0.227        0.953
  WS02006252           JUNCTION        1.31          1.100        0.000
  WS02006256           JUNCTION        6.88          2.050        0.000
  YS02001580           JUNCTION        0.36          0.450        0.000
  YS02001583           JUNCTION        0.36          0.390        0.110
  YS02001586           JUNCTION        0.44          0.510        0.000
  YS02001590           JUNCTION        0.51          0.750        0.000
  YS02001593           JUNCTION        0.51          0.729        0.111
  YS02001596           JUNCTION        0.60          0.989        0.081
  YS02001600           JUNCTION        0.72          1.190        0.000
  YS02001601           JUNCTION        1.04          1.440        0.000
  YS02001602           JUNCTION        0.94          1.270        0.000
  YS02001605           JUNCTION        0.88          1.179        0.001
  YS02001607           JUNCTION        0.47          0.645        0.035
  YS02001610           JUNCTION        0.49          0.680        0.000
  YS02001613           JUNCTION        0.46          0.659        0.041
  YS02001616           JUNCTION        0.43          0.592        0.018
  YS02001619           JUNCTION        0.42          0.585        0.025
  YS02001622           JUNCTION        0.41          0.561        0.059
  YS02001625           JUNCTION        0.56          0.780        0.000
  YS02001629           JUNCTION        0.37          0.470        0.000
  YS02001633           JUNCTION        0.57          1.060        0.000
  YS02001641           JUNCTION        0.50          0.957        0.143
  YS02001644           JUNCTION        0.46          0.920        0.000
  YS02001647           JUNCTION        0.28          0.715        0.185
  YS02001649           JUNCTION        0.35          0.871        0.179
  YS02001652           JUNCTION        0.22          0.871        0.259
  YS02001655           JUNCTION        0.14          0.900        0.300
  YS02001658           JUNCTION        0.06          0.590        0.710
  YS02001748           JUNCTION        0.01          0.279        0.911
  YS02001751           JUNCTION        0.09          0.403        0.797
  YS02001754           JUNCTION        0.15          0.560        0.590
  YS02001757           JUNCTION        0.38          0.881        0.329
  YS02001759           JUNCTION        0.30          0.856        0.354
  YS02001762           JUNCTION        0.27          0.852        0.298
  YS02001765           JUNCTION        0.25          0.826        0.274
  YS02001767           JUNCTION        0.23          0.824        0.206
  YS02001770           JUNCTION        0.21          0.920        0.000
  YS02001774           JUNCTION        0.26          0.960        0.090
  YS02001779           JUNCTION        0.16          0.680        0.000
  YS02001783           JUNCTION        0.32          0.506        1.094
  YS02001784           JUNCTION        0.30          0.370        1.120
  YS02001786           JUNCTION        0.21          0.116        1.314
  YS02001882           JUNCTION        0.28          0.651        0.179
  YS02001884           JUNCTION        0.28          0.685        0.185
  YS02001887           JUNCTION        0.31          0.763        0.187
  YS02001890           JUNCTION        0.32          0.760        0.000
  YS02001895           JUNCTION        0.26          0.566        0.184
  YS02001898           JUNCTION        0.26          0.533        0.207
  YS02001901           JUNCTION        0.30          0.675        0.195
  YS02001904           JUNCTION        0.29          0.636        0.214
  YS02001907           JUNCTION        0.50          0.950        0.000
  YS02001910           JUNCTION        0.34          0.953        0.147
  YS02001915           JUNCTION        0.27          0.908        0.092
  YS02001918           JUNCTION        0.20          0.810        0.000
  YS02001920           JUNCTION        0.21          1.140        0.000
  YS02001923           JUNCTION        0.01          0.820        0.000
  YS02001926           JUNCTION        0.01          0.900        0.000
  YS02001929           JUNCTION        0.01          0.780        0.000
  YS02006553           JUNCTION        0.52          0.971        0.219
  YS02006556           JUNCTION        0.42          0.910        0.440
  YS02006558           JUNCTION        0.41          0.895        0.505
  YS02006561           JUNCTION        0.17          0.192        0.958
  YS02163301           JUNCTION        0.55          1.030        0.000
  YS02163601           JUNCTION        0.59          1.080        0.000
  YS02164001           JUNCTION        0.51          0.994        0.106
  
  
  *********************
  Node Flooding Summary
  *********************
  
  Flooding refers to all water that overflows a node, whether it ponds or not.
  --------------------------------------------------------------------------
                                                             Total   Maximum
                                 Maximum   Time of Max       Flood    Ponded
                        Hours       Rate    Occurrence      Volume     Depth
  Node                 Flooded       LPS   days hr:min    10^6 ltr    Meters
  --------------------------------------------------------------------------
  WS02006112              0.01   1547.89      0  00:00       0.047     0.000
  WS02006242              0.01      9.65      0  03:15       0.000     0.000
  WS02006248              0.01     23.89      0  02:35       0.000     0.000
  WS02006249              0.41     80.04      0  02:56       0.098     0.000
  WS02006252              0.01    272.08      0  02:15       0.000     0.000
  WS02006256              0.86    288.28      0  03:25       0.266     0.000
  YS02001580              0.01     94.29      0  02:18       0.000     0.000
  YS02001586              0.27    212.34      0  02:26       0.105     0.000
  YS02001590              0.01      0.43      0  02:20       0.000     0.000
  YS02001600              0.01      2.33      0  02:35       0.000     0.000
  YS02001601              0.39    832.47      0  02:25       0.633     0.000
  YS02001602              0.28     61.94      0  02:24       0.055     0.000
  YS02001610              0.24    399.24      0  02:26       0.211     0.000
  YS02001625              0.21    972.39      0  02:26       0.353     0.000
  YS02001629              0.06    109.75      0  02:25       0.012     0.000
  YS02001633              0.01     12.23      0  02:18       0.000     0.000
  YS02001644              0.04    218.59      0  02:25       0.019     0.000
  YS02001770              0.01     58.45      0  02:22       0.000     0.000
  YS02001779              0.01    250.72      0  02:22       0.001     0.000
  YS02001890              0.06     67.86      0  02:25       0.008     0.000
  YS02001907              0.16   1047.94      0  02:24       0.341     0.000
  YS02001918              0.01    148.00      0  02:23       0.002     0.000
  YS02001920              0.01     50.38      0  02:23       0.000     0.000
  YS02001923              0.01     84.82      0  02:23       0.000     0.000
  YS02001926              0.01    141.38      0  02:23       0.001     0.000
  YS02001929              0.01    115.71      0  02:23       0.000     0.000
  YS02163301              0.01     15.16      0  02:18       0.000     0.000
  YS02163601              0.01      5.14      0  02:18       0.000     0.000
  
  
  **********************
  Storage Volume Summary
  **********************
  
  ------------------------------------------------------------------------------------------------
                         Average    Avg   Evap  Exfil     Maximum    Max    Time of Max    Maximum
                          Volume   Pcnt   Pcnt   Pcnt      Volume   Pcnt     Occurrence    Outflow
  Storage Unit           1000 m³   Full   Loss   Loss     1000 m³   Full    days hr:min        LPS
  ------------------------------------------------------------------------------------------------
  CC-storage               1.940   30.3    0.0    0.0       3.905   60.9       0  02:41    1766.00
  JK-storage               0.071   24.4    0.0    0.0       0.212   72.8       0  02:30    2300.00
  
  
  ***********************
  Outfall Loading Summary
  ***********************
  
  -----------------------------------------------------------
                         Flow       Avg       Max       Total
                         Freq      Flow      Flow      Volume
  Outfall Node           Pcnt       LPS       LPS    10^6 ltr
  -----------------------------------------------------------
  CC-1                  33.02    683.00    683.00       3.866
  CC-2                  24.99    683.00    683.00       2.316
  JK-1                   6.71   1000.00   1000.00       1.280
  JK-2                   4.42   1000.00   1000.00       0.781
  WSC                   99.99    196.85    554.36       3.883
  -----------------------------------------------------------
  System                33.83   3562.85   3877.48      12.126
  
  
  ********************
  Link Flow Summary
  ********************
  
  -----------------------------------------------------------------------------
                                 Maximum  Time of Max   Maximum    Max/    Max/
                                  |Flow|   Occurrence   |Veloc|    Full    Full
  Link                 Type          LPS  days hr:min     m/sec    Flow   Depth
  -----------------------------------------------------------------------------
  1                    CONDUIT    554.36     0  02:50      2.83    0.19    0.30
  WS02003060WS02003069 CONDUIT    552.96     0  02:49      1.64    0.22    0.34
  WS02003066WSF200     CONDUIT    537.01     0  02:48      2.85    0.09    0.22
  WS02003067WS02003066 CONDUIT    536.85     0  02:48      1.21    0.17    0.42
  WS02003069WS02003072 CONDUIT    552.64     0  02:48      1.37    0.27    0.39
  WS02003072WS02003073 CONDUIT    552.57     0  02:49      1.43    1.19    0.37
  WS02004401WS02004402 CONDUIT   1171.33     0  00:01      2.51    1.41    0.89
  WS02004402WS02004403 CONDUIT    884.75     0  00:01      2.16    1.27    0.92
  WS02004403WS02004404 CONDUIT    832.43     0  00:01      1.96    0.60    0.96
  WS02004404WS02004405 CONDUIT    776.45     0  00:01      2.26    7.61    0.98
  WS02004405WS02004406 CONDUIT    711.76     0  00:02      2.15    1.40    0.96
  WS02004406WS02004407 CONDUIT    539.92     0  02:44      1.04    0.24    0.63
  WS02004407WS02004409 CONDUIT    538.91     0  02:45      1.95    0.19    0.48
  WS02004409WS02004410 CONDUIT    538.23     0  02:45      1.31    0.70    0.67
  WS02004410WS02004411 CONDUIT    537.80     0  02:47      1.19    0.73    0.69
  WS02004411WS02004412 CONDUIT    537.22     0  02:47      1.08    0.76    0.69
  WS02004412WS02004413 CONDUIT    537.86     0  02:47      1.10    0.36    0.78
  WS02004413WS02003067 CONDUIT    536.83     0  02:47      1.11    0.23    0.59
  WS02006109WS02006110 CONDUIT   1306.78     0  00:00      3.14    2.51    1.00
  WS02006110WS02006113 CONDUIT    565.55     0  02:25      1.37    0.51    1.00
  WS02006111WS02006112 CONDUIT   2307.30     0  00:00      9.18    1.10    0.91
  WS02006112WS02006115 CONDUIT    899.27     0  00:00      1.16    0.53    1.00
  WS02006113WS02006111 CONDUIT   1176.04     0  00:00      2.47    1.41    1.00
  WS02006115WS02006116 CONDUIT   1098.16     0  00:01      1.72    1.41    1.00
  WS02006116WS02004401 CONDUIT   1677.78     0  00:00      2.92    2.31    0.87
  WS02006228WS02006109 CONDUIT    555.52     0  02:36      1.40    2.43    1.00
  WS02006229WS02006228 CONDUIT    555.33     0  02:36      1.24    1.84    1.00
  WS02006230WS02006229 CONDUIT    555.66     0  02:36      1.44   12.37    1.00
  WS02006231WS02006230 CONDUIT    581.45     0  02:30      1.59    8.82    1.00
  WS02006232WS02006231 CONDUIT    578.67     0  02:26      1.51    1.21    1.00
  WS02006234WS02006232 CONDUIT    577.86     0  02:26      1.50    1.17    1.00
  WS02006235WS02006234 CONDUIT    572.73     0  02:26      1.49    6.04    1.00
  WS02006238WS02006235 CONDUIT    423.59     0  03:01      1.45    0.95    1.00
  WS02006239WS02006238 CONDUIT    424.10     0  02:45      1.10    1.36    1.00
  WS02006240WS02006239 CONDUIT    434.18     0  02:20      1.13    1.37    1.00
  WS02006242WS02006240 CONDUIT    422.87     0  02:21      1.10    1.68    1.00
  WS02006243WS02006242 CONDUIT    422.62     0  02:21      1.14    0.90    1.00
  WS02006245WS02006243 CONDUIT    422.68     0  02:21      1.38    1.25    1.00
  WS02006247WS02006245 CONDUIT    423.77     0  02:21      1.38    3.36    1.00
  WS02006248WS02006247 CONDUIT    424.45     0  02:21      1.43    0.92    1.00
  WS02006249WS02006248 CONDUIT    425.71     0  02:21      1.40    2.33    1.00
  WS02006251WS02006249 CONDUIT    507.86     0  02:15      1.88    1.46    1.00
  WS02006252WS02006251 CONDUIT    403.80     0  02:55     26.56    1.48    1.00
  WS02006256WS02006235 CONDUIT    288.77     0  00:05      4.22    3.06    1.00
  WSF200WS02003060     CONDUIT    537.66     0  02:48      2.06    0.12    0.28
  YS02001580YS02001583 CONDUIT    106.30     0  02:18      0.61    0.41    1.00
  YS02001583YS02001586 CONDUIT    156.03     0  02:18      0.64    0.24    1.00
  YS02001586YS02001590 CONDUIT    317.84     0  02:31      1.27    0.56    1.00
  YS02001590YS02001593 CONDUIT    317.95     0  02:23      1.12    2.00    1.00
  YS02001593YS02001596 CONDUIT    318.01     0  02:26      1.75    0.50    1.00
  YS02001596YS02001600 CONDUIT    317.98     0  02:26      1.24    0.62    1.00
  YS02001600YS02001601 CONDUIT    317.79     0  02:26      1.12    0.55    1.00
  YS02001601YS02001602 CONDUIT    506.08     0  02:17      1.79    1.83    1.00
  YS02001602YS02001605 CONDUIT    505.56     0  02:17      1.79   10.70    1.00
  YS02001605YS02001607 CONDUIT    505.35     0  02:17      1.79    2.77    1.00
  YS02001607YS02001610 CONDUIT    504.60     0  02:17      0.64    0.48    1.00
  YS02001610YS02001613 CONDUIT    507.88     0  02:17      0.65    0.59    1.00
  YS02001613YS02001616 CONDUIT    505.60     0  02:17      0.65    0.43    1.00
  YS02001616YS02001619 CONDUIT    499.79     0  02:17      0.68    0.87    1.00
  YS02001619YS02001622 CONDUIT    939.11     0  02:21      1.20    1.38    1.00
  YS02001622YS02001625 CONDUIT    938.61     0  02:21      1.20    0.50    1.00
  YS02001625YS02001629 CONDUIT    938.78     0  02:21      1.20    0.45    1.00
  YS02001629YS02163301 CONDUIT    938.07     0  02:21      1.19    1.16    1.00
  YS02001633YS02163601 CONDUIT   1402.02     0  02:21      1.79    1.47    1.00
  YS02001641YS02001644 CONDUIT   1403.29     0  02:21      1.79    4.54    1.00
  YS02001644YS02001647 CONDUIT   1806.73     0  02:21      2.31    1.06    1.00
  YS02001647YS02001649 CONDUIT   1796.98     0  02:21      2.37    0.95    1.00
  YS02001649YS02001757 CONDUIT   2032.36     0  02:21      2.60    1.23    1.00
  YS02001652YS02001649 CONDUIT    703.32     0  02:25      0.90    0.35    1.00
  YS02001655YS02001652 CONDUIT    701.44     0  02:25      1.27    0.34    1.00
  YS02001658YS02001655 CONDUIT    700.39     0  02:25      1.90    0.30    1.00
  YS02001661YS02001658 CONDUIT    698.80     0  02:25      2.33    0.27    0.97
  YS02001664YS02001661 CONDUIT    787.57     0  02:25      2.33    0.25    0.69
  YS02001745YS02001748 CONDUIT    516.36     0  02:24      2.15    0.20    0.80
  YS02001748YS02001751 CONDUIT    399.89     0  02:25      1.68    0.20    1.00
  YS02001751YS02001754 CONDUIT    399.24     0  02:25      1.40    0.19    1.00
  YS02001754YS02001757 CONDUIT    399.53     0  02:25      0.51    0.16    1.00
  YS02001757CaochengTiaoxuchi CONDUIT   3408.82     0  02:25      4.35    1.48    1.00
  YS02001759YS02001757 CONDUIT   1285.39     0  02:25      1.64    0.91    1.00
  YS02001762YS02001759 CONDUIT    744.14     0  02:25      0.95    0.86    1.00
  YS02001765YS02001762 CONDUIT    743.53     0  02:25      0.95    0.70    1.00
  YS02001767YS02001765 CONDUIT    744.10     0  02:25      0.95    0.94    1.00
  YS02001770YS02001767 CONDUIT    742.96     0  02:25      0.95    2.94    1.00
  YS02001774YS02001770 CONDUIT    312.57     0  02:22      0.40    0.20    1.00
  YS02001779YS02001774 CONDUIT    328.54     0  02:22      0.42    0.17    1.00
  YS02001783YS02001784 CONDUIT   1155.34     0  02:24      2.30    1.59    1.00
  YS02001784YS02001785 CONDUIT   1156.62     0  02:24      2.30    2.69    1.00
  YS02001786YS02001788 CONDUIT   1156.50     0  02:24      2.46    2.23    0.89
  YS02001788YS02001790 CONDUIT   1167.03     0  02:24      2.70    0.86    0.84
  YS02001790YS02001791 CONDUIT   1286.05     0  02:24      3.44    1.40    0.70
  YS02001791YS02001793 CONDUIT   1247.50     0  02:24      6.57    0.54    0.44
  YS02001793JiankangQianchi CONDUIT   1243.38     0  02:29      2.47    0.10    0.64
  YS02001882YS02001884 CONDUIT     43.46     0  02:20      0.09    0.05    1.00
  YS02001884YS02001887 CONDUIT     73.27     0  02:20      0.09    0.10    1.00
  YS02001887YS02001890 CONDUIT    574.58     0  02:25      0.73    0.98    1.00
  YS02001890YS02001895 CONDUIT    512.74     0  02:26      0.65    0.24    1.00
  YS02001895YS02001898 CONDUIT    513.09     0  02:26      0.65    0.89    1.00
  YS02001898YS02001901 CONDUIT    513.76     0  02:26      0.65    0.33    1.00
  YS02001901YS02001904 CONDUIT    512.89     0  02:26      0.65    0.80    1.00
  YS02001904YS02001907 CONDUIT    513.35     0  02:26      0.65    0.18    1.00
  YS02001907YS02006553 CONDUIT    803.72     0  02:35      0.89    0.95    1.00
  YS02001910YS02001907 CONDUIT   1004.25     0  02:24      1.28    0.57    1.00
  YS02001915YS02001910 CONDUIT   1004.63     0  02:24      1.28    0.50    1.00
  YS02001918YS02001915 CONDUIT    440.48     0  02:23      0.56    0.24    1.00
  YS02001920YS02001918 CONDUIT    439.13     0  02:23      0.64    0.42    1.00
  YS02001923YS02001920 CONDUIT    435.65     0  02:23      0.71    0.20    1.00
  YS02001926YS02001923 CONDUIT    407.32     0  02:22      0.97    0.58    1.00
  YS02001929YS02001926 CONDUIT    387.50     0  02:23      1.14    0.18    1.00
  YS02006553YS02006556 CONDUIT    800.79     0  02:35      1.02    0.69    1.00
  YS02006556YS02006558 CONDUIT    799.63     0  02:33      1.02    0.63    1.00
  YS02006558YS02006561 CONDUIT   1164.20     0  02:22      4.12    2.57    1.00
  YS02006561YS02001783 CONDUIT   1155.52     0  02:24      2.30    0.60    1.00
  YS02163301YS02001633 CONDUIT    938.08     0  02:21      1.19    0.88    1.00
  YS02163601YS02164001 CONDUIT   1402.84     0  02:21      1.79    1.24    1.00
  YS02164001YS02001641 CONDUIT   1404.11     0  02:21      1.79    1.92    1.00
  CC-R1                PUMP       683.00     0  00:05              1.00
  CC-R2                PUMP       683.00     0  00:10              1.00
  CC-S1                PUMP       200.00     0  01:15              1.00
  CC-S2                PUMP       200.00     0  00:10              1.00
  JK-R1                PUMP      1000.00     0  01:55              1.00
  JK-R2                PUMP      1000.00     0  00:10              1.00
  JK-S                 PUMP       300.00     0  00:05              1.00
  
  
  ***************************
  Flow Classification Summary
  ***************************
  
  -------------------------------------------------------------------------------------
                      Adjusted    ---------- Fraction of Time in Flow Class ---------- 
                       /Actual         Up    Down  Sub   Sup   Up    Down  Norm  Inlet 
  Conduit               Length    Dry  Dry   Dry   Crit  Crit  Crit  Crit  Ltd   Ctrl  
  -------------------------------------------------------------------------------------
  1                       1.00   0.00  0.00  0.00  0.00  1.00  0.00  0.00  0.30  0.00
  WS02003060WS02003069    1.00   0.00  0.00  0.00  0.97  0.03  0.00  0.00  0.78  0.00
  WS02003066WSF200        1.00   0.03  0.00  0.00  0.00  0.97  0.00  0.00  0.91  0.00
  WS02003067WS02003066    1.00   0.02  0.01  0.00  0.97  0.00  0.00  0.00  0.00  0.00
  WS02003069WS02003072    1.00   0.00  0.00  0.00  0.99  0.01  0.00  0.00  0.86  0.00
  WS02003072WS02003073    1.00   0.00  0.00  0.00  0.00  0.00  0.00  1.00  0.00  0.00
  WS02004401WS02004402    1.00   0.00  0.00  0.00  1.00  0.00  0.00  0.00  0.00  0.00
  WS02004402WS02004403    1.00   0.00  0.00  0.00  1.00  0.00  0.00  0.00  0.00  0.00
  WS02004403WS02004404    1.00   0.00  0.00  0.00  1.00  0.00  0.00  0.00  0.00  0.00
  WS02004404WS02004405    1.00   0.00  0.00  0.00  1.00  0.00  0.00  0.00  0.02  0.00
  WS02004405WS02004406    1.00   0.00  0.00  0.00  1.00  0.00  0.00  0.00  0.00  0.00
  WS02004406WS02004407    1.00   0.00  0.00  0.00  1.00  0.00  0.00  0.00  0.00  0.00
  WS02004407WS02004409    1.00   0.00  0.00  0.00  0.99  0.00  0.00  0.00  0.99  0.00
  WS02004409WS02004410    1.00   0.00  0.00  0.00  0.99  0.00  0.00  0.00  0.00  0.00
  WS02004410WS02004411    1.00   0.01  0.00  0.00  0.99  0.00  0.00  0.00  0.00  0.00
  WS02004411WS02004412    1.00   0.01  0.00  0.00  0.99  0.00  0.00  0.00  0.00  0.00
  WS02004412WS02004413    1.00   0.01  0.00  0.00  0.99  0.00  0.00  0.00  0.00  0.00
  WS02004413WS02003067    1.00   0.01  0.01  0.00  0.00  0.00  0.98  0.00  0.00  0.00
  WS02006109WS02006110    1.00   0.00  0.00  0.00  1.00  0.00  0.00  0.00  0.00  0.00
  WS02006110WS02006113    1.00   0.00  0.00  0.00  1.00  0.00  0.00  0.00  0.00  0.00
  WS02006111WS02006112    1.00   0.00  0.00  0.00  1.00  0.00  0.00  0.00  1.00  0.00
  WS02006112WS02006115    1.00   0.00  0.00  0.00  1.00  0.00  0.00  0.00  0.00  0.00
  WS02006113WS02006111    1.00   0.00  0.00  0.00  0.01  0.99  0.00  0.00  0.10  0.00
  WS02006115WS02006116    1.00   0.00  0.00  0.00  1.00  0.00  0.00  0.00  0.00  0.00
  WS02006116WS02004401    1.00   0.00  0.00  0.00  1.00  0.00  0.00  0.00  0.00  0.00
  WS02006228WS02006109    1.00   0.00  0.00  0.00  1.00  0.00  0.00  0.00  0.00  0.00
  WS02006229WS02006228    1.00   0.00  0.00  0.00  1.00  0.00  0.00  0.00  0.00  0.00
  WS02006230WS02006229    1.00   0.00  0.00  0.00  1.00  0.00  0.00  0.00  0.04  0.00
  WS02006231WS02006230    1.00   0.00  0.00  0.00  0.15  0.00  0.85  0.00  0.00  0.00
  WS02006232WS02006231    1.00   0.00  0.00  0.00  0.99  0.00  0.01  0.00  0.00  0.00
  WS02006234WS02006232    1.00   0.00  0.00  0.00  0.99  0.00  0.00  0.00  0.04  0.00
  WS02006235WS02006234    1.00   0.01  0.00  0.00  0.91  0.00  0.08  0.00  0.00  0.00
  WS02006238WS02006235    1.00   0.01  0.00  0.00  0.99  0.00  0.00  0.00  0.01  0.00
  WS02006239WS02006238    1.00   0.01  0.00  0.00  0.99  0.00  0.00  0.00  0.13  0.00
  WS02006240WS02006239    1.00   0.01  0.00  0.00  0.67  0.00  0.00  0.32  0.06  0.00
  WS02006242WS02006240    1.00   0.01  0.00  0.00  0.98  0.00  0.01  0.00  0.00  0.00
  WS02006243WS02006242    1.00   0.02  0.00  0.00  0.98  0.00  0.00  0.00  0.66  0.00
  WS02006245WS02006243    1.00   0.02  0.00  0.00  0.78  0.00  0.00  0.20  0.01  0.00
  WS02006247WS02006245    1.00   0.02  0.00  0.00  0.92  0.00  0.00  0.06  0.00  0.00
  WS02006248WS02006247    1.00   0.02  0.00  0.00  0.95  0.00  0.00  0.03  0.59  0.00
  WS02006249WS02006248    1.00   0.00  0.02  0.00  0.38  0.00  0.60  0.00  0.00  0.00
  WS02006251WS02006249    1.00   0.00  0.00  0.00  0.99  0.01  0.00  0.00  0.62  0.00
  WS02006252WS02006251    1.00   0.02  0.54  0.00  0.05  0.00  0.39  0.00  0.00  0.00
  WS02006256WS02006235    1.00   0.01  0.00  0.00  0.97  0.02  0.00  0.00  0.01  0.00
  WSF200WS02003060        1.00   0.00  0.03  0.00  0.47  0.50  0.00  0.00  0.74  0.00
  YS02001580YS02001583    1.00   0.28  0.56  0.00  0.16  0.00  0.00  0.00  0.65  0.00
  YS02001583YS02001586    1.00   0.49  0.30  0.00  0.21  0.00  0.00  0.00  0.65  0.00
  YS02001586YS02001590    1.00   0.13  0.00  0.00  0.39  0.04  0.00  0.44  0.36  0.00
  YS02001590YS02001593    1.00   0.13  0.01  0.00  0.08  0.00  0.79  0.00  0.00  0.00
  YS02001593YS02001596    1.00   0.14  0.00  0.00  0.09  0.01  0.00  0.77  0.01  0.00
  YS02001596YS02001600    1.00   0.14  0.00  0.00  0.15  0.01  0.00  0.70  0.05  0.00
  YS02001600YS02001601    1.00   0.13  0.01  0.00  0.86  0.00  0.00  0.00  0.64  0.00
  YS02001601YS02001602    1.00   0.13  0.01  0.00  0.86  0.00  0.00  0.00  0.00  0.00
  YS02001602YS02001605    1.00   0.14  0.00  0.00  0.86  0.00  0.00  0.00  0.00  0.00
  YS02001605YS02001607    1.00   0.14  0.00  0.00  0.86  0.00  0.00  0.00  0.00  0.00
  YS02001607YS02001610    1.00   0.13  0.01  0.00  0.86  0.00  0.00  0.00  0.02  0.00
  YS02001610YS02001613    1.00   0.13  0.00  0.00  0.87  0.00  0.00  0.00  0.01  0.00
  YS02001613YS02001616    1.00   0.13  0.00  0.00  0.87  0.00  0.00  0.00  0.01  0.00
  YS02001616YS02001619    1.00   0.13  0.00  0.00  0.87  0.00  0.00  0.00  0.00  0.00
  YS02001619YS02001622    1.00   0.13  0.00  0.00  0.87  0.00  0.00  0.00  0.34  0.00
  YS02001622YS02001625    1.00   0.13  0.00  0.00  0.87  0.00  0.00  0.00  0.06  0.00
  YS02001625YS02001629    1.00   0.13  0.06  0.00  0.11  0.00  0.70  0.00  0.00  0.00
  YS02001629YS02163301    1.00   0.16  0.01  0.00  0.82  0.00  0.00  0.00  0.00  0.00
  YS02001633YS02163601    1.00   0.00  0.01  0.00  0.99  0.00  0.00  0.00  0.15  0.00
  YS02001641YS02001644    1.00   0.00  0.01  0.00  0.99  0.00  0.00  0.00  0.00  0.00
  YS02001644YS02001647    1.00   0.00  0.19  0.00  0.81  0.00  0.00  0.00  0.00  0.00
  YS02001647YS02001649    1.00   0.00  0.19  0.00  0.53  0.28  0.00  0.00  0.59  0.00
  YS02001649YS02001757    1.00   0.00  0.00  0.00  0.69  0.31  0.00  0.00  0.54  0.00
  YS02001652YS02001649    1.00   0.00  0.00  0.00  0.96  0.04  0.00  0.00  0.80  0.00
  YS02001655YS02001652    1.00   0.00  0.00  0.00  0.13  0.01  0.00  0.86  0.05  0.00
  YS02001658YS02001655    1.00   0.00  0.14  0.00  0.62  0.23  0.00  0.00  0.75  0.00
  YS02001661YS02001658    1.00   0.14  0.00  0.00  0.49  0.37  0.00  0.00  0.75  0.00
  YS02001664YS02001661    1.00   0.13  0.00  0.00  0.78  0.10  0.00  0.00  0.86  0.00
  YS02001745YS02001748    1.00   0.00  0.00  0.00  0.04  0.01  0.00  0.95  0.03  0.00
  YS02001748YS02001751    1.00   0.00  0.00  0.00  0.81  0.19  0.00  0.00  0.79  0.00
  YS02001751YS02001754    1.00   0.00  0.00  0.00  0.11  0.00  0.00  0.89  0.04  0.00
  YS02001754YS02001757    1.00   0.00  0.00  0.00  1.00  0.00  0.00  0.00  0.88  0.00
  YS02001757CaochengTiaoxuchi    1.00   0.00  0.00  0.00  0.96  0.04  0.00  0.00  0.85  0.00
  YS02001759YS02001757    1.00   0.00  0.00  0.00  1.00  0.00  0.00  0.00  0.68  0.00
  YS02001762YS02001759    1.00   0.00  0.00  0.00  1.00  0.00  0.00  0.00  0.06  0.00
  YS02001765YS02001762    1.00   0.00  0.00  0.00  1.00  0.00  0.00  0.00  0.77  0.00
  YS02001767YS02001765    1.00   0.00  0.00  0.00  1.00  0.00  0.00  0.00  0.00  0.00
  YS02001770YS02001767    1.00   0.00  0.00  0.00  1.00  0.00  0.00  0.00  0.00  0.00
  YS02001774YS02001770    1.00   0.00  0.14  0.00  0.60  0.00  0.27  0.00  0.04  0.00
  YS02001779YS02001774    1.00   0.00  0.00  0.00  1.00  0.00  0.00  0.00  0.81  0.00
  YS02001783YS02001784    1.00   0.00  0.20  0.00  0.80  0.00  0.00  0.00  0.58  0.00
  YS02001784YS02001785    1.00   0.00  0.00  0.00  1.00  0.00  0.00  0.00  0.18  0.00
  YS02001786YS02001788    1.00   0.00  0.00  0.00  0.81  0.19  0.00  0.00  0.00  0.00
  YS02001788YS02001790    1.00   0.00  0.00  0.00  0.22  0.78  0.00  0.00  0.85  0.00
  YS02001790YS02001791    1.00   0.00  0.00  0.00  0.01  0.99  0.00  0.00  0.15  0.00
  YS02001791YS02001793    1.00   0.00  0.00  0.00  0.00  1.00  0.00  0.00  0.01  0.00
  YS02001793JiankangQianchi    1.00   0.00  0.00  0.00  1.00  0.00  0.00  0.00  0.97  0.00
  YS02001882YS02001884    1.00   0.16  0.01  0.00  0.83  0.00  0.00  0.00  0.00  0.00
  YS02001884YS02001887    1.00   0.06  0.05  0.00  0.89  0.00  0.00  0.00  0.00  0.00
  YS02001887YS02001890    1.00   0.00  0.00  0.00  0.97  0.00  0.03  0.00  0.00  0.00
  YS02001890YS02001895    1.00   0.00  0.17  0.00  0.82  0.00  0.00  0.00  0.00  0.00
  YS02001895YS02001898    1.00   0.18  0.00  0.00  0.80  0.00  0.02  0.00  0.00  0.00
  YS02001898YS02001901    1.00   0.18  0.00  0.00  0.82  0.00  0.00  0.00  0.02  0.00
  YS02001901YS02001904    1.00   0.18  0.00  0.00  0.82  0.00  0.00  0.00  0.00  0.00
  YS02001904YS02001907    1.00   0.00  0.18  0.00  0.82  0.00  0.00  0.00  0.00  0.00
  YS02001907YS02006553    1.00   0.00  0.02  0.00  0.98  0.00  0.00  0.00  0.00  0.00
  YS02001910YS02001907    1.00   0.00  0.00  0.00  0.97  0.00  0.00  0.03  0.12  0.00
  YS02001915YS02001910    1.00   0.00  0.00  0.00  0.96  0.04  0.00  0.00  0.18  0.00
  YS02001918YS02001915    1.00   0.00  0.00  0.00  0.98  0.02  0.00  0.00  0.79  0.00
  YS02001920YS02001918    1.00   0.00  0.00  0.00  1.00  0.00  0.00  0.00  0.01  0.00
  YS02001923YS02001920    1.00   0.00  0.00  0.00  1.00  0.00  0.00  0.00  0.95  0.00
  YS02001926YS02001923    1.00   0.00  0.07  0.00  0.03  0.00  0.89  0.00  0.00  0.00
  YS02001929YS02001926    1.00   0.00  0.13  0.00  0.87  0.00  0.00  0.00  0.85  0.00
  YS02006553YS02006556    1.00   0.01  0.00  0.00  0.99  0.00  0.00  0.00  0.03  0.00
  YS02006556YS02006558    1.00   0.00  0.00  0.00  1.00  0.00  0.00  0.00  0.00  0.00
  YS02006558YS02006561    1.00   0.20  0.00  0.00  0.03  0.77  0.00  0.00  0.17  0.00
  YS02006561YS02001783    1.00   0.20  0.00  0.00  0.06  0.75  0.00  0.00  0.71  0.00
  YS02163301YS02001633    1.00   0.00  0.16  0.00  0.84  0.00  0.00  0.00  0.00  0.00
  YS02163601YS02164001    1.00   0.00  0.08  0.00  0.92  0.00  0.00  0.00  0.00  0.00
  YS02164001YS02001641    1.00   0.01  0.07  0.00  0.92  0.00  0.00  0.00  0.06  0.00
  
  
  *************************
  Conduit Surcharge Summary
  *************************
  
  ----------------------------------------------------------------------------
                                                           Hours        Hours 
                         --------- Hours Full --------   Above Full   Capacity
  Conduit                Both Ends  Upstream  Dnstream   Normal Flow   Limited
  ----------------------------------------------------------------------------
  WS02003072WS02003073        0.01      0.01      0.01      0.53         0.01
  WS02004401WS02004402        0.01      0.01      0.01      0.01         0.01
  WS02004402WS02004403        0.01      0.01      0.01      0.01         0.01
  WS02004403WS02004404        0.01      0.01      0.01      0.01         0.01
  WS02004404WS02004405        0.01      0.01      0.01      2.27         0.01
  WS02004405WS02004406        0.01      0.01      0.01      0.32         0.01
  WS02006109WS02006110        0.33      0.34      0.97      0.39         0.01
  WS02006110WS02006113        0.01      0.01      0.96      0.01         0.01
  WS02006111WS02006112        0.01      0.01      1.49      0.01         0.01
  WS02006112WS02006115        0.01      0.01      0.44      0.01         0.01
  WS02006113WS02006111        0.01      0.01      0.01      0.01         0.01
  WS02006115WS02006116        0.01      0.01      0.01      0.01         0.01
  WS02006116WS02004401        0.01      0.01      0.01      0.01         0.01
  WS02006228WS02006109        0.93      0.97      0.93      1.77         0.92
  WS02006229WS02006228        0.91      0.94      0.91      1.29         0.91
  WS02006230WS02006229        1.08      1.22      1.08      3.11         1.08
  WS02006231WS02006230        0.33      0.33      0.42      2.58         0.01
  WS02006232WS02006231        0.40      0.40      0.98      0.45         0.01
  WS02006234WS02006232        0.90      0.90      0.98      0.43         0.42
  WS02006235WS02006234        0.52      0.52      0.92      2.28         0.01
  WS02006238WS02006235        0.93      0.93      0.97      0.01         0.01
  WS02006239WS02006238        0.94      0.96      0.94      1.14         0.84
  WS02006240WS02006239        0.93      0.95      0.93      1.11         0.79
  WS02006242WS02006240        0.94      0.94      1.05      1.31         0.01
  WS02006243WS02006242        0.95      0.95      0.98      0.01         0.03
  WS02006245WS02006243        0.94      0.94      0.95      0.77         0.61
  WS02006247WS02006245        0.93      0.94      0.93      1.93         0.93
  WS02006248WS02006247        0.92      0.92      0.93      0.01         0.03
  WS02006249WS02006248        0.92      0.92      0.92      1.86         0.01
  WS02006251WS02006249        0.92      0.92      0.92      1.21         0.88
  WS02006252WS02006251        1.28      1.28      1.30      1.28         0.01
  WS02006256WS02006235        2.28      2.35      6.76      0.92         0.01
  YS02001580YS02001583        0.36      0.36      0.38      0.01         0.01
  YS02001583YS02001586        0.36      0.36      0.44      0.01         0.01
  YS02001586YS02001590        0.45      0.45      0.51      0.01         0.01
  YS02001590YS02001593        0.51      0.51      0.52      0.52         0.01
  YS02001593YS02001596        0.52      0.52      0.60      0.01         0.01
  YS02001596YS02001600        0.64      0.64      0.72      0.01         0.01
  YS02001600YS02001601        0.78      0.78      1.04      0.01         0.01
  YS02001601YS02001602        0.94      0.94      1.08      0.73         0.01
  YS02001602YS02001605        0.88      0.88      0.94      1.94         0.01
  YS02001605YS02001607        0.84      0.88      0.84      1.01         0.84
  YS02001607YS02001610        0.47      0.47      0.49      0.01         0.01
  YS02001610YS02001613        0.46      0.46      0.49      0.01         0.01
  YS02001613YS02001616        0.43      0.43      0.46      0.01         0.01
  YS02001616YS02001619        0.42      0.42      0.43      0.01         0.01
  YS02001619YS02001622        0.41      0.42      0.41      0.53         0.39
  YS02001622YS02001625        0.41      0.41      0.56      0.01         0.01
  YS02001625YS02001629        0.37      0.37      0.56      0.01         0.01
  YS02001629YS02163301        0.55      0.55      0.55      0.22         0.21
  YS02001633YS02163601        0.57      0.57      0.59      0.33         0.33
  YS02001641YS02001644        0.46      0.50      0.46      1.13         0.46
  YS02001644YS02001647        0.28      0.28      0.46      0.04         0.01
  YS02001647YS02001649        0.28      0.28      0.35      0.01         0.01
  YS02001649YS02001757        0.34      0.35      0.38      0.29         0.22
  YS02001652YS02001649        0.23      0.23      0.35      0.01         0.01
  YS02001655YS02001652        0.14      0.14      0.22      0.01         0.01
  YS02001658YS02001655        0.06      0.06      0.14      0.01         0.01
  YS02001661YS02001658        0.01      0.01      0.06      0.01         0.01
  YS02001664YS02001661        0.01      0.01      0.01      0.01         0.01
  YS02001745YS02001748        0.01      0.01      0.01      0.01         0.01
  YS02001748YS02001751        0.03      0.03      0.09      0.01         0.01
  YS02001751YS02001754        0.09      0.09      0.15      0.01         0.01
  YS02001754YS02001757        0.17      0.17      0.38      0.01         0.01
  YS02001757CaochengTiaoxuchi        0.31      0.38      0.82      0.26         0.15
  YS02001759YS02001757        0.30      0.30      0.38      0.01         0.01
  YS02001762YS02001759        0.27      0.27      0.30      0.01         0.02
  YS02001765YS02001762        0.25      0.25      0.27      0.01         0.01
  YS02001767YS02001765        0.23      0.23      0.25      0.01         0.02
  YS02001770YS02001767        0.23      0.23      0.23      0.34         0.18
  YS02001774YS02001770        0.21      0.21      0.26      0.01         0.01
  YS02001779YS02001774        0.16      0.16      0.26      0.01         0.01
  YS02001783YS02001784        0.29      0.32      0.29      0.44         0.29
  YS02001784YS02001785        0.21      0.29      0.21      0.62         0.21
  YS02001786YS02001788        0.01      0.21      0.01      0.53         0.01
  YS02001790YS02001791        0.01      0.01      0.01      0.29         0.01
  YS02001793JiankangQianchi        0.01      0.01      6.19      0.01         0.01
  YS02001882YS02001884        0.28      0.28      0.28      0.01         0.01
  YS02001884YS02001887        0.30      0.30      0.31      0.01         0.01
  YS02001887YS02001890        0.32      0.32      0.33      0.01         0.01
  YS02001890YS02001895        0.26      0.26      0.34      0.01         0.01
  YS02001895YS02001898        0.26      0.26      0.26      0.01         0.01
  YS02001898YS02001901        0.26      0.26      0.30      0.01         0.01
  YS02001901YS02001904        0.29      0.29      0.30      0.01         0.01
  YS02001904YS02001907        0.29      0.29      0.52      0.01         0.01
  YS02001907YS02006553        0.62      0.62      0.67      0.01         0.01
  YS02001910YS02001907        0.34      0.34      0.50      0.01         0.01
  YS02001915YS02001910        0.27      0.27      0.34      0.01         0.01
  YS02001918YS02001915        0.20      0.20      0.27      0.01         0.01
  YS02001920YS02001918        0.20      0.20      0.21      0.01         0.01
  YS02001923YS02001920        0.17      0.17      0.21      0.01         0.01
  YS02001926YS02001923        0.01      0.01      0.01      0.01         0.01
  YS02001929YS02001926        0.01      0.01      0.01      0.01         0.01
  YS02006553YS02006556        0.42      0.42      0.52      0.01         0.01
  YS02006556YS02006558        0.46      0.46      0.53      0.01         0.01
  YS02006558YS02006561        0.22      0.41      0.22      0.58         0.22
  YS02006561YS02001783        0.17      0.17      0.32      0.01         0.01
  YS02163301YS02001633        0.55      0.55      0.59      0.01         0.01
  YS02163601YS02164001        0.51      0.51      0.59      0.14         0.01
  YS02164001YS02001641        0.50      0.51      0.50      0.57         0.43
  
  
  ***************
  Pumping Summary
  ***************
  
  ---------------------------------------------------------------------------------------------------------
                                                  Min       Avg       Max     Total     Power    % Time Off
                        Percent   Number of      Flow      Flow      Flow    Volume     Usage    Pump Curve
  Pump                 Utilized   Start-Ups       LPS       LPS       LPS  10^6 ltr     Kw-hr    Low   High
  ---------------------------------------------------------------------------------------------------------
  CC-R1                   19.73          26      0.00    683.00    683.00     3.881     68.47    0.0   48.3
  CC-R2                   11.85          21      0.00    683.00    683.00     2.330     41.13    0.0   49.6
  CC-S1                   22.45          19      0.00    200.00    200.00     1.293      8.12    0.0    0.0
  CC-S2                   19.96          27      0.00    200.00    200.00     1.150      7.31    0.0    0.0
  JK-R1                    4.45          15      0.00   1000.00   1000.00     1.283     13.56    0.0    0.0
  JK-R2                    2.73          14      0.00   1000.00   1000.00     0.786      7.01    0.0    0.0
  JK-S                    10.77          44      0.00    300.00    300.00     0.931     15.71    0.0    0.0
  

  Analysis begun on:  Fri Aug  4 07:05:05 2023
  Analysis ended on:  Fri Aug  4 07:05:11 2023
  Total elapsed time: 00:00:06