
  OWA STORM WATER MANAGEMENT MODEL - VERSION v5.1.14 (OWA 2022-07-31)
  --------------------------------------------------------------

  WARNING 04: minimum elevation drop used for Conduit WS02004404WS02004405
  WARNING 03: negative offset ignored for Link YS02001904YS02001907
  
  *********************************************************
  NOTE: The summary statistics displayed in this report are
  based on results found at every computational time step,  
  not just on results from each reporting time step.
  *********************************************************
  
  ****************
  Analysis Options
  ****************
  Flow Units ............... LPS
  Process Models:
    Rainfall/Runoff ........ YES
    RDII ................... NO
    Snowmelt ............... NO
    Groundwater ............ NO
    Flow Routing ........... YES
    Ponding Allowed ........ NO
    Water Quality .......... NO
  Infiltration Method ...... HORTON
  Flow Routing Method ...... DYNWAVE
  Surcharge Method ......... EXTRAN
  Starting Date ............ 08/28/2015 08:00:00
  Ending Date .............. 08/28/2015 16:00:00
  Antecedent Dry Days ...... 8.0
  Report Time Step ......... 00:01:00
  Wet Time Step ............ 00:01:00
  Dry Time Step ............ 00:01:00
  Routing Time Step ........ 30.00 sec
  Variable Time Step ....... YES
  Maximum Trials ........... 8
  Number of Threads ........ 1
  Head Tolerance ........... 0.001500 m
  
  
  **************************        Volume         Depth
  Runoff Quantity Continuity     hectare-m            mm
  **************************     ---------       -------
  Initial LID Storage ......         0.049         1.488
  Total Precipitation ......         1.748        52.691
  Evaporation Loss .........         0.000         0.000
  Infiltration Loss ........         0.073         2.191
  Surface Runoff ...........         1.281        38.633
  Final Storage ............         0.444        13.378
  Continuity Error (%) .....        -0.041
  
  
  **************************        Volume        Volume
  Flow Routing Continuity        hectare-m      10^6 ltr
  **************************     ---------     ---------
  Dry Weather Inflow .......         0.000         0.000
  Wet Weather Inflow .......         1.281        12.810
  Groundwater Inflow .......         0.000         0.000
  RDII Inflow ..............         0.000         0.000
  External Inflow ..........         0.083         0.834
  External Outflow .........         1.221        12.211
  Flooding Loss ............         0.243         2.428
  Evaporation Loss .........         0.000         0.000
  Exfiltration Loss ........         0.000         0.000
  Initial Stored Volume ....         0.243         2.431
  Final Stored Volume ......         0.177         1.773
  Continuity Error (%) .....        -2.102
  
  
  *************************
  Highest Continuity Errors
  *************************
  Node YS02001583 (-15.04%)
  Node YS02001884 (3.35%)
  Node WS02006110 (-1.78%)
  Node WS02006256 (-1.77%)
  Node YS02001774 (1.60%)
  
  
  ***************************
  Time-Step Critical Elements
  ***************************
  Link WS02004404WS02004405 (29.13%)
  Link WS02006252WS02006251 (27.45%)
  Link WS02006238WS02006235 (15.51%)
  Link WS02003066WSF200 (7.10%)
  Link WS02006235WS02006234 (6.19%)
  
  
  ********************************
  Highest Flow Instability Indexes
  ********************************
  Link WS02006113WS02006111 (33)
  Link WS02004404WS02004405 (18)
  Link WS02004403WS02004404 (16)
  Link WS02006238WS02006235 (15)
  Link WS02006111WS02006112 (15)
  
  
  *************************
  Routing Time Step Summary
  *************************
  Minimum Time Step           :     0.01 sec
  Average Time Step           :     2.98 sec
  Maximum Time Step           :    30.00 sec
  Percent in Steady State     :    -0.00
  Average Iterations per Step :     3.01
  Percent Not Converging      :     9.35
  
  
  ***************************
  Subcatchment Runoff Summary
  ***************************
  
  ------------------------------------------------------------------------------------------------------------------------------
                            Total      Total      Total      Total     Imperv       Perv      Total       Total     Peak  Runoff
                           Precip      Runon       Evap      Infil     Runoff     Runoff     Runoff      Runoff   Runoff   Coeff
  Subcatchment                 mm         mm         mm         mm         mm         mm         mm    10^6 ltr      LPS
  ------------------------------------------------------------------------------------------------------------------------------
  sub60                     52.69       0.00       0.00       1.32      34.86       3.56      38.42        0.50   391.89   0.729
  sub61                     52.69       0.00       0.00       2.02      34.83       5.30      40.14        0.74   566.33   0.762
  sub62                     52.69       0.00       0.00       0.90      37.13       2.42      39.55        1.08   765.88   0.751
  sub63                     52.69       0.00       0.00       3.68      29.83       8.83      38.67        0.88   617.83   0.734
  sub64                     52.69       0.00       0.00       1.77      33.97       4.39      38.36        0.92   612.89   0.728
  sub65                     52.69       0.00       0.00       1.62      36.66       4.01      40.66        1.12   709.42   0.772
  sub66                     52.69       0.00       0.00       4.27      28.84       7.84      36.68        1.71   878.52   0.696
  sub67                     52.69       0.00       0.00       0.90      38.07       2.50      40.57        0.75   614.55   0.770
  sub68                     52.69       0.00       0.00       1.55      33.62       4.07      37.69        1.04   767.92   0.715
  sub69                     52.69       0.00       0.00       1.39      35.42       4.88      40.29        1.49   926.17   0.765
  sub70                     52.69       0.00       0.00       4.65      28.37      10.01      38.38        1.11   506.52   0.728
  sub71                     52.69       0.00       0.00       0.83      33.73       2.19      35.91        0.94   625.42   0.682
  sub72                     52.69       0.00       0.00       0.79      36.43       2.03      38.46        0.53   314.20   0.730
  

  ***********************
  LID Performance Summary
  ***********************

  --------------------------------------------------------------------------------------------------------------------
                                         Total      Evap     Infil   Surface    Drain    Initial     Final  Continuity
                                        Inflow      Loss      Loss   Outflow   Outflow   Storage   Storage       Error
  Subcatchment      LID Control             mm        mm        mm        mm        mm        mm        mm           %
  --------------------------------------------------------------------------------------------------------------------
  sub60             GreenRoof            52.69      0.00      0.00      0.00      0.00      7.05     59.79       -0.07
  sub61             GreenRoof            52.69      0.00      0.00      0.00      0.00      7.05     59.79       -0.07
  sub62             GreenRoof            52.69      0.00      0.00      0.00      0.00      7.05     59.79       -0.07
  sub63             GreenRoof            52.69      0.00      0.00      0.00      0.00      7.05     59.79       -0.07
  sub64             GreenRoof            52.69      0.00      0.00      0.00      0.00      7.05     59.79       -0.07
  sub65             GreenRoof            52.69      0.00      0.00      0.00      0.00      7.05     59.79       -0.07
  sub66             GreenRoof            52.69      0.00      0.00      0.00      0.00      7.05     59.79       -0.07
  sub67             GreenRoof            52.69      0.00      0.00      0.00      0.00      7.05     59.79       -0.07
  sub68             GreenRoof            52.69      0.00      0.00      0.00      0.00      7.05     59.79       -0.07
  sub69             GreenRoof            52.69      0.00      0.00      0.00      0.00      7.05     59.79       -0.07
  sub70             GreenRoof            52.69      0.00      0.00      0.00      0.00      7.05     59.79       -0.07
  sub71             GreenRoof            52.69      0.00      0.00      0.00      0.00      7.05     59.79       -0.07
  sub72             GreenRoof            52.69      0.00      0.00      0.00      0.00      7.05     59.79       -0.07
  
  ******************
  Node Depth Summary
  ******************
  
  ---------------------------------------------------------------------------------
                                 Average  Maximum  Maximum  Time of Max    Reported
                                   Depth    Depth      HGL   Occurrence   Max Depth
  Node                 Type       Meters   Meters   Meters  days hr:min      Meters
  ---------------------------------------------------------------------------------
  WS02003060           JUNCTION     0.19     0.38     5.32     0  02:26        0.38
  WS02003066           JUNCTION     0.17     0.30     5.85     0  02:25        0.30
  WS02003067           JUNCTION     0.45     0.70     6.02     0  02:25        0.70
  WS02003069           JUNCTION     0.21     0.43     5.01     0  02:23        0.43
  WS02003072           JUNCTION     0.27     0.50     4.87     0  02:23        0.50
  WS02003073           JUNCTION     0.15     0.30     4.36     0  02:24        0.30
  WS02004401           JUNCTION     0.53     0.87     6.87     0  02:19        0.87
  WS02004402           JUNCTION     0.57     0.90     6.86     0  02:18        0.90
  WS02004403           JUNCTION     0.60     0.92     6.85     0  02:13        0.92
  WS02004404           JUNCTION     0.67     1.02     6.87     0  02:17        1.00
  WS02004405           JUNCTION     0.66     0.97     6.82     0  02:14        0.96
  WS02004406           JUNCTION     0.68     0.96     6.79     0  02:18        0.96
  WS02004407           JUNCTION     0.14     0.30     6.61     0  02:13        0.30
  WS02004409           JUNCTION     0.31     0.67     6.44     0  02:21        0.67
  WS02004410           JUNCTION     0.34     0.68     6.40     0  02:21        0.68
  WS02004411           JUNCTION     0.37     0.69     6.37     0  02:21        0.69
  WS02004412           JUNCTION     0.40     0.70     6.34     0  02:22        0.70
  WS02004413           JUNCTION     0.56     0.86     6.33     0  02:25        0.86
  WS02006109           JUNCTION     0.57     1.24     7.85     0  00:00        0.98
  WS02006110           JUNCTION     0.58     1.45     8.04     0  00:00        0.93
  WS02006111           JUNCTION     0.14     1.67     8.37     0  00:00        0.56
  WS02006112           JUNCTION     0.68     2.68     8.56     0  00:00        1.29
  WS02006113           JUNCTION     0.21     1.50     8.40     0  00:00        0.46
  WS02006115           JUNCTION     0.41     1.69     7.83     0  00:00        0.86
  WS02006116           JUNCTION     0.50     1.11     7.15     0  00:00        0.85
  WS02006228           JUNCTION     0.55     1.64     8.29     0  00:00        1.07
  WS02006229           JUNCTION     0.52     1.31     8.00     0  00:00        1.09
  WS02006230           JUNCTION     0.51     1.22     7.96     0  02:55        1.20
  WS02006231           JUNCTION     0.33     1.04     8.16     0  02:00        1.04
  WS02006232           JUNCTION     0.45     1.26     8.30     0  02:10        1.26
  WS02006234           JUNCTION     0.37     1.22     8.38     0  02:56        1.22
  WS02006235           JUNCTION     0.40     1.32     8.49     0  02:56        1.32
  WS02006238           JUNCTION     0.43     1.36     8.51     0  02:56        1.36
  WS02006239           JUNCTION     0.39     1.36     8.57     0  02:56        1.36
  WS02006240           JUNCTION     0.36     1.32     8.61     0  02:56        1.32
  WS02006242           JUNCTION     0.42     1.38     8.65     0  02:10        1.38
  WS02006243           JUNCTION     0.34     1.46     8.88     0  02:10        1.46
  WS02006245           JUNCTION     0.34     1.36     8.84     0  02:10        1.36
  WS02006247           JUNCTION     0.36     1.47     8.97     0  02:10        1.47
  WS02006248           JUNCTION     0.32     1.10     8.69     0  02:10        1.10
  WS02006249           JUNCTION     0.35     1.09     8.69     0  01:59        1.09
  WS02006251           JUNCTION     0.35     1.38     9.05     0  01:59        1.12
  WS02006252           JUNCTION     0.26     1.50     9.74     0  01:56        0.90
  WS02006256           JUNCTION     0.94     2.35     9.28     0  00:10        2.35
  WSF200               JUNCTION     0.13     0.29     5.52     0  02:26        0.29
  YS02001580           JUNCTION     0.09     1.05     9.59     0  01:47        0.77
  YS02001583           JUNCTION     0.12     1.14     9.64     0  01:47        0.81
  YS02001586           JUNCTION     0.20     1.13     9.30     0  01:47        1.13
  YS02001590           JUNCTION     0.30     1.40     9.26     0  01:46        1.37
  YS02001593           JUNCTION     0.23     1.41     9.27     0  02:10        1.29
  YS02001596           JUNCTION     0.31     1.76     9.18     0  02:10        1.66
  YS02001600           JUNCTION     0.39     1.87     9.00     0  01:46        1.86
  YS02001601           JUNCTION     0.57     2.06     8.90     0  01:46        2.06
  YS02001602           JUNCTION     0.48     1.87     8.77     0  01:47        1.87
  YS02001605           JUNCTION     0.45     1.78     8.68     0  01:47        1.78
  YS02001607           JUNCTION     0.43     1.65     8.49     0  01:52        1.65
  YS02001610           JUNCTION     0.47     1.68     8.48     0  01:47        1.68
  YS02001613           JUNCTION     0.43     1.70     8.54     0  01:47        1.67
  YS02001616           JUNCTION     0.37     1.61     8.52     0  01:47        1.61
  YS02001619           JUNCTION     0.35     1.61     8.54     0  01:47        1.61
  YS02001622           JUNCTION     0.33     1.62     8.52     0  01:47        1.59
  YS02001625           JUNCTION     0.57     1.78     8.38     0  01:47        1.78
  YS02001629           JUNCTION     0.46     1.85     8.40     0  01:47        1.85
  YS02001633           JUNCTION     0.52     2.08     8.53     0  01:49        2.08
  YS02001641           JUNCTION     0.50     1.97     8.41     0  01:50        1.93
  YS02001644           JUNCTION     0.49     1.92     8.35     0  01:49        1.92
  YS02001647           JUNCTION     0.29     1.76     8.37     0  01:50        1.68
  YS02001649           JUNCTION     0.32     1.93     8.32     0  01:50        1.84
  YS02001652           JUNCTION     0.21     1.87     8.47     0  01:49        1.68
  YS02001655           JUNCTION     0.16     1.93     8.78     0  01:49        1.47
  YS02001658           JUNCTION     0.11     1.79     8.93     0  01:50        1.23
  YS02001661           JUNCTION     0.14     1.05     8.45     0  01:51        1.02
  YS02001664           JUNCTION     0.06     0.52     8.44     0  01:51        0.30
  YS02001745           JUNCTION     0.06     0.84     8.36     0  01:50        0.78
  YS02001748           JUNCTION     0.10     1.79     8.87     0  01:50        1.16
  YS02001751           JUNCTION     0.13     2.17     9.05     0  01:50        1.29
  YS02001754           JUNCTION     0.18     2.01     8.62     0  01:50        1.52
  YS02001757           JUNCTION     0.33     1.95     8.21     0  01:50        1.83
  YS02001759           JUNCTION     0.27     1.89     8.26     0  01:50        1.85
  YS02001762           JUNCTION     0.26     1.90     8.30     0  01:50        1.89
  YS02001765           JUNCTION     0.24     1.90     8.35     0  01:51        1.90
  YS02001767           JUNCTION     0.24     1.91     8.40     0  01:51        1.91
  YS02001770           JUNCTION     0.26     1.95     8.44     0  01:50        1.95
  YS02001774           JUNCTION     0.32     2.01     8.43     0  01:50        1.99
  YS02001779           JUNCTION     0.16     1.68     8.37     0  01:49        1.68
  YS02001783           JUNCTION     0.24     1.28     7.42     0  01:49        1.22
  YS02001784           JUNCTION     0.24     1.22     7.29     0  01:48        1.11
  YS02001786           JUNCTION     0.20     1.08     7.11     0  01:48        0.86
  YS02001788           JUNCTION     0.15     0.62     6.60     0  01:50        0.62
  YS02001790           JUNCTION     0.17     0.72     6.37     0  01:51        0.70
  YS02001791           JUNCTION     0.11     0.44     5.91     0  01:51        0.43
  YS02001793           JUNCTION     0.06     0.27     5.10     0  01:55        0.24
  YS02001882           JUNCTION     0.31     1.83     8.55     0  01:48        1.70
  YS02001884           JUNCTION     0.39     1.88     8.49     0  01:48        1.81
  YS02001887           JUNCTION     0.45     1.91     8.44     0  01:49        1.91
  YS02001890           JUNCTION     0.48     1.81     8.32     0  01:48        1.81
  YS02001895           JUNCTION     0.28     1.65     8.40     0  01:48        1.64
  YS02001898           JUNCTION     0.28     1.77     8.51     0  01:48        1.69
  YS02001901           JUNCTION     0.39     1.83     8.44     0  01:49        1.83
  YS02001904           JUNCTION     0.37     1.79     8.42     0  01:49        1.79
  YS02001907           JUNCTION     0.65     1.96     8.25     0  01:49        1.96
  YS02001910           JUNCTION     0.47     2.10     8.61     0  01:49        2.10
  YS02001915           JUNCTION     0.30     2.00     8.72     0  01:49        2.00
  YS02001918           JUNCTION     0.16     1.81     8.88     0  01:49        1.81
  YS02001920           JUNCTION     0.22     2.14     9.15     0  01:49        2.14
  YS02001923           JUNCTION     0.13     2.03     9.29     0  01:49        1.54
  YS02001926           JUNCTION     0.16     1.90     9.35     0  01:49        1.36
  YS02001929           JUNCTION     0.09     1.78     9.47     0  01:49        1.14
  YS02006553           JUNCTION     0.65     2.07     8.36     0  01:49        2.07
  YS02006556           JUNCTION     0.63     2.07     8.38     0  01:49        2.07
  YS02006558           JUNCTION     0.66     2.09     8.36     0  01:49        2.09
  YS02006561           JUNCTION     0.15     0.95     7.61     0  01:49        0.88
  YS02163301           JUNCTION     0.48     1.95     8.46     0  01:49        1.95
  YS02163601           JUNCTION     0.55     2.07     8.47     0  01:50        2.01
  YS02164001           JUNCTION     0.49     1.99     8.44     0  01:50        1.92
  CC-1                 OUTFALL      0.00     0.00     0.00     0  00:00        0.00
  CC-2                 OUTFALL      0.00     0.00     0.00     0  00:00        0.00
  JK-1                 OUTFALL      0.00     0.00     0.00     0  00:00        0.00
  JK-2                 OUTFALL      0.00     0.00     0.00     0  00:00        0.00
  WSC                  OUTFALL      0.15     0.30     0.97     0  02:25        0.30
  CC-storage           STORAGE      0.69     1.39     6.89     0  02:25        1.39
  JK-storage           STORAGE      1.41     4.02     4.82     0  01:55        4.02
  
  
  *******************
  Node Inflow Summary
  *******************
  
  -------------------------------------------------------------------------------------------------
                                  Maximum  Maximum                  Lateral       Total        Flow
                                  Lateral    Total  Time of Max      Inflow      Inflow     Balance
                                   Inflow   Inflow   Occurrence      Volume      Volume       Error
  Node                 Type           LPS      LPS  days hr:min    10^6 ltr    10^6 ltr     Percent
  -------------------------------------------------------------------------------------------------
  WS02003060           JUNCTION     16.53   553.06     0  02:26       0.476         3.6       0.057
  WS02003066           JUNCTION      0.00   536.35     0  02:22           0        3.13       0.040
  WS02003067           JUNCTION      0.00   536.32     0  02:21           0        3.13       0.128
  WS02003069           JUNCTION      0.32   553.23     0  02:22     0.00922        3.61       0.095
  WS02003072           JUNCTION      0.00   553.15     0  02:23           0        3.61       0.174
  WS02003073           JUNCTION      1.82   554.97     0  02:24      0.0524        3.65       0.136
  WS02004401           JUNCTION      0.00  1786.04     0  00:00           0        3.24       0.327
  WS02004402           JUNCTION      0.00  1248.69     0  00:01           0        3.23       0.329
  WS02004403           JUNCTION      0.00   929.44     0  00:01           0        3.22       0.325
  WS02004404           JUNCTION      0.00   877.02     0  00:01           0        3.21       0.265
  WS02004405           JUNCTION      0.00   827.31     0  00:01           0         3.2       0.351
  WS02004406           JUNCTION      0.00   768.45     0  00:02           0        3.19       0.663
  WS02004407           JUNCTION      0.00   537.84     0  02:13           0        3.17       0.025
  WS02004409           JUNCTION      0.00   537.59     0  02:13           0        3.17       0.071
  WS02004410           JUNCTION      0.00   536.61     0  02:20           0        3.16       0.127
  WS02004411           JUNCTION      0.00   536.56     0  02:24           0        3.16       0.165
  WS02004412           JUNCTION      0.00   536.47     0  02:24           0        3.15       0.222
  WS02004413           JUNCTION      0.00   536.55     0  02:25           0        3.15       0.414
  WS02006109           JUNCTION      0.00  1446.81     0  00:00           0        3.13      -0.327
  WS02006110           JUNCTION      0.00   556.74     0  02:56           0        3.11      -1.749
  WS02006111           JUNCTION      0.00  1180.41     0  00:00           0        3.16      -1.338
  WS02006112           JUNCTION      0.00  2307.30     0  00:00           0        3.21      -0.017
  WS02006113           JUNCTION      0.00   565.41     0  02:56           0        3.13      -1.217
  WS02006115           JUNCTION      0.00   953.54     0  00:00           0        3.18      -1.127
  WS02006116           JUNCTION      0.00  1264.47     0  00:00           0        3.21      -0.733
  WS02006228           JUNCTION      0.00   869.18     0  00:00           0        3.11      -0.123
  WS02006229           JUNCTION      0.00   551.56     0  02:56           0         3.1      -0.039
  WS02006230           JUNCTION     10.28   706.67     0  00:00       0.296        3.09       0.059
  WS02006231           JUNCTION      0.00   572.97     0  02:55           0        2.77      -0.178
  WS02006232           JUNCTION      0.00   571.47     0  02:55           0        2.78       0.327
  WS02006234           JUNCTION      0.00   566.97     0  02:55           0        2.76      -0.322
  WS02006235           JUNCTION      0.00   559.21     0  02:55           0        2.81       0.372
  WS02006238           JUNCTION      0.00   421.17     0  02:56           0        2.07      -0.148
  WS02006239           JUNCTION      0.00   420.91     0  02:57           0        2.04      -0.226
  WS02006240           JUNCTION      0.00   419.10     0  02:57           0        2.03       0.043
  WS02006242           JUNCTION      0.00   419.08     0  02:35           0        2.03       0.117
  WS02006243           JUNCTION      0.00   418.37     0  02:35           0        2.02      -0.195
  WS02006245           JUNCTION      0.00   417.61     0  02:35           0        2.03       0.621
  WS02006247           JUNCTION      0.00   419.27     0  02:57           0        2.03      -0.036
  WS02006248           JUNCTION      0.00   422.24     0  02:57           0        2.03      -0.092
  WS02006249           JUNCTION      0.00   452.97     0  00:05           0        2.18       0.844
  WS02006251           JUNCTION      0.00   406.81     0  01:59           0        2.18       0.021
  WS02006252           JUNCTION      0.00   400.00     0  00:05           0        2.16      -0.563
  WS02006256           JUNCTION      0.00   300.00     0  00:10           0        1.03      -1.742
  WSF200               JUNCTION      0.00   536.37     0  02:22           0        3.13       0.011
  YS02001580           JUNCTION      0.00   202.50     0  01:47           0     0.00457      -1.615
  YS02001583           JUNCTION      0.00   253.88     0  01:47           0      0.0145     -13.072
  YS02001586           JUNCTION    506.52   506.59     0  01:53        1.11        1.12       0.167
  YS02001590           JUNCTION      0.00   317.92     0  02:02           0       0.986      -0.065
  YS02001593           JUNCTION      0.00   317.96     0  02:03           0       0.987       0.011
  YS02001596           JUNCTION      0.00   318.03     0  02:01           0       0.986       0.002
  YS02001600           JUNCTION      0.00   317.96     0  02:01           0       0.986       0.003
  YS02001601           JUNCTION    926.17  1243.70     0  01:51        1.49        2.48       0.031
  YS02001602           JUNCTION      0.00   577.46     0  01:47           0        1.77       0.020
  YS02001605           JUNCTION      0.00   577.48     0  01:47           0         1.7       0.026
  YS02001607           JUNCTION      0.00   576.97     0  01:47           0         1.7       0.107
  YS02001610           JUNCTION      0.00   537.21     0  01:47           0        1.71       0.127
  YS02001613           JUNCTION      0.00   498.91     0  01:47           0        1.47       0.108
  YS02001616           JUNCTION      0.00   497.81     0  02:12           0        1.47       0.012
  YS02001619           JUNCTION    878.52   947.60     0  01:47        1.71        3.17      -0.014
  YS02001622           JUNCTION      0.00   905.15     0  01:47           0        3.16      -0.013
  YS02001625           JUNCTION      0.00   939.26     0  01:52           0        3.17       0.281
  YS02001629           JUNCTION      0.00   873.00     0  02:09           0         2.8      -0.002
  YS02001633           JUNCTION    709.42  1429.34     0  01:48        1.12         3.9       0.078
  YS02001641           JUNCTION      0.00  1430.22     0  01:48           0        3.89       0.070
  YS02001644           JUNCTION    612.89  1944.23     0  01:48       0.921         4.8       0.067
  YS02001647           JUNCTION      0.00  1945.89     0  01:48           0        4.78       0.009
  YS02001649           JUNCTION      0.00  2232.02     0  01:49           0        5.65       0.002
  YS02001652           JUNCTION      0.00   748.43     0  01:52           0       0.877      -0.170
  YS02001655           JUNCTION      0.00   747.33     0  01:49           0       0.878       0.061
  YS02001658           JUNCTION      0.00   772.95     0  01:50           0       0.877      -0.032
  YS02001661           JUNCTION      0.00   817.47     0  01:51           0       0.877       0.014
  YS02001664           JUNCTION    617.83   617.83     0  01:50       0.877       0.877      -0.009
  YS02001745           JUNCTION    391.89   503.53     0  01:50       0.505       0.505       0.317
  YS02001748           JUNCTION      0.00   633.40     0  01:50           0       0.507      -0.496
  YS02001751           JUNCTION      0.00   497.36     0  01:51           0       0.516       0.142
  YS02001754           JUNCTION      0.00   498.21     0  01:51           0       0.522      -0.269
  YS02001757           JUNCTION      0.00  3462.55     0  01:51           0        7.99       0.076
  YS02001759           JUNCTION    566.33  1371.36     0  01:50       0.736        1.81      -0.019
  YS02001762           JUNCTION      0.00   803.32     0  01:50           0        1.08      -0.013
  YS02001765           JUNCTION      0.00   798.25     0  01:50           0        1.08       0.022
  YS02001767           JUNCTION      0.00   793.76     0  01:50           0        1.08      -0.008
  YS02001770           JUNCTION    765.88   780.96     0  01:50        1.08        1.12      -0.048
  YS02001774           JUNCTION      0.00   537.25     0  01:49           0      0.0656       1.629
  YS02001779           JUNCTION      0.00   547.71     0  01:49           0       0.024      -2.408
  YS02001783           JUNCTION      0.00  1155.68     0  01:49           0        2.78      -0.006
  YS02001784           JUNCTION      0.00  1156.47     0  01:49           0        2.78      -0.000
  YS02001786           JUNCTION      0.00  1156.12     0  01:49           0        2.78       0.003
  YS02001788           JUNCTION      0.00  1156.99     0  01:49           0        2.78       0.002
  YS02001790           JUNCTION      0.00  1160.41     0  01:52           0        2.78       0.033
  YS02001791           JUNCTION      0.00  1280.29     0  01:51           0        2.78      -0.040
  YS02001793           JUNCTION      0.00  1226.16     0  01:58           0        2.78       0.005
  YS02001882           JUNCTION      0.00    96.28     0  01:48           0      0.0121       0.879
  YS02001884           JUNCTION      0.00   167.00     0  01:48           0      0.0479       3.470
  YS02001887           JUNCTION    614.55   617.23     0  01:49       0.754       0.788       0.466
  YS02001890           JUNCTION      0.00   619.81     0  01:49           0       0.749       0.555
  YS02001895           JUNCTION      0.00   602.85     0  01:48           0       0.734       0.161
  YS02001898           JUNCTION      0.00   605.59     0  01:48           0       0.733      -0.124
  YS02001901           JUNCTION      0.00   608.38     0  01:48           0       0.734       0.325
  YS02001904           JUNCTION      0.00   609.35     0  01:48           0       0.738       0.304
  YS02001907           JUNCTION      0.00  1616.21     0  01:50           0        2.21       0.779
  YS02001910           JUNCTION      0.00  1082.04     0  01:50           0        1.47       0.421
  YS02001915           JUNCTION    625.42  1081.22     0  01:50       0.939        1.52       0.015
  YS02001918           JUNCTION      0.00   746.15     0  01:48           0       0.612      -0.086
  YS02001920           JUNCTION      0.00   696.12     0  01:49           0       0.586       0.023
  YS02001923           JUNCTION      0.00   976.59     0  01:49           0       0.568      -0.302
  YS02001926           JUNCTION      0.00  1229.72     0  01:49           0       0.549      -0.534
  YS02001929           JUNCTION    314.20  1140.41     0  01:49       0.529       0.535      -0.355
  YS02006553           JUNCTION      0.00   794.11     0  02:02           0         1.8       0.613
  YS02006556           JUNCTION      0.00   794.33     0  02:02           0        1.81       0.403
  YS02006558           JUNCTION    767.92  1184.51     0  01:48        1.04        2.82       0.106
  YS02006561           JUNCTION      0.00  1191.52     0  01:48           0        2.78      -0.004
  YS02163301           JUNCTION      0.00   877.70     0  02:09           0        2.79       0.051
  YS02163601           JUNCTION      0.00  1428.50     0  01:48           0        3.89       0.122
  YS02164001           JUNCTION      0.00  1429.08     0  01:48           0        3.88       0.058
  CC-1                 OUTFALL       0.00   683.00     0  00:05           0        3.19       0.000
  CC-2                 OUTFALL       0.00   683.00     0  00:05           0        3.49       0.000
  JK-1                 OUTFALL       0.00  1000.00     0  00:10           0        0.63       0.000
  JK-2                 OUTFALL       0.00  1000.00     0  00:10           0        1.25       0.000
  WSC                  OUTFALL       0.00   554.93     0  02:25           0        3.65       0.000
  CC-storage           STORAGE       0.00  3463.19     0  01:51           0        10.2      -0.308
  JK-storage           STORAGE       0.00  1232.31     0  01:58           0        2.94      -0.593
  
  
  **********************
  Node Surcharge Summary
  **********************
  
  Surcharging occurs when water rises above the top of the highest conduit.
  ---------------------------------------------------------------------
                                               Max. Height   Min. Depth
                                   Hours       Above Crown    Below Rim
  Node                 Type      Surcharged         Meters       Meters
  ---------------------------------------------------------------------
  WS02004404           JUNCTION        0.02          0.023        2.757
  WS02006109           JUNCTION        1.14          0.416        1.404
  WS02006110           JUNCTION        0.48          0.544        1.306
  WS02006111           JUNCTION        0.01          0.856        1.014
  WS02006112           JUNCTION        0.49          1.680        0.000
  WS02006113           JUNCTION        0.01          0.705        1.225
  WS02006115           JUNCTION        0.01          0.682        1.568
  WS02006116           JUNCTION        0.01          0.053        2.237
  WS02006228           JUNCTION        1.13          0.810        1.390
  WS02006229           JUNCTION        1.14          0.510        1.940
  WS02006230           JUNCTION        0.48          0.137        1.433
  WS02006231           JUNCTION        0.52          0.327        1.203
  WS02006232           JUNCTION        1.15          0.559        0.921
  WS02006234           JUNCTION        0.67          0.501        0.739
  WS02006235           JUNCTION        1.12          0.611        0.679
  WS02006238           JUNCTION        1.13          0.641        0.789
  WS02006239           JUNCTION        1.12          0.618        0.672
  WS02006240           JUNCTION        1.13          0.611        0.779
  WS02006242           JUNCTION        1.13          0.654        0.166
  WS02006243           JUNCTION        1.12          0.752        0.018
  WS02006245           JUNCTION        1.11          0.648        0.202
  WS02006247           JUNCTION        1.11          0.760        0.000
  WS02006248           JUNCTION        1.10          0.380        0.000
  WS02006249           JUNCTION        1.10          0.390        0.000
  WS02006251           JUNCTION        0.53          0.354        0.826
  WS02006252           JUNCTION        1.29          1.100        0.000
  WS02006256           JUNCTION        4.81          2.050        0.000
  YS02001580           JUNCTION        0.39          0.450        0.000
  YS02001583           JUNCTION        0.39          0.500        0.000
  YS02001586           JUNCTION        0.49          0.510        0.000
  YS02001590           JUNCTION        0.55          0.750        0.000
  YS02001593           JUNCTION        0.55          0.786        0.054
  YS02001596           JUNCTION        0.63          1.029        0.041
  YS02001600           JUNCTION        0.74          1.190        0.000
  YS02001601           JUNCTION        1.07          1.440        0.000
  YS02001602           JUNCTION        0.95          1.270        0.000
  YS02001605           JUNCTION        0.90          1.180        0.000
  YS02001607           JUNCTION        0.50          0.646        0.034
  YS02001610           JUNCTION        0.52          0.680        0.000
  YS02001613           JUNCTION        0.49          0.700        0.000
  YS02001616           JUNCTION        0.46          0.610        0.000
  YS02001619           JUNCTION        0.44          0.610        0.000
  YS02001622           JUNCTION        0.44          0.620        0.000
  YS02001625           JUNCTION        0.59          0.780        0.000
  YS02001629           JUNCTION        0.38          0.470        0.000
  YS02001633           JUNCTION        0.60          1.060        0.000
  YS02001641           JUNCTION        0.53          0.972        0.128
  YS02001644           JUNCTION        0.50          0.920        0.000
  YS02001647           JUNCTION        0.32          0.763        0.137
  YS02001649           JUNCTION        0.39          0.928        0.122
  YS02001652           JUNCTION        0.26          0.844        0.286
  YS02001655           JUNCTION        0.14          0.930        0.270
  YS02001658           JUNCTION        0.04          0.791        0.509
  YS02001748           JUNCTION        0.01          0.715        0.475
  YS02001751           JUNCTION        0.06          1.172        0.028
  YS02001754           JUNCTION        0.15          0.958        0.192
  YS02001757           JUNCTION        0.43          0.951        0.259
  YS02001759           JUNCTION        0.34          0.893        0.317
  YS02001762           JUNCTION        0.32          0.902        0.248
  YS02001765           JUNCTION        0.29          0.895        0.205
  YS02001767           JUNCTION        0.26          0.909        0.121
  YS02001770           JUNCTION        0.25          0.920        0.000
  YS02001774           JUNCTION        0.30          1.008        0.042
  YS02001779           JUNCTION        0.16          0.680        0.000
  YS02001783           JUNCTION        0.35          0.479        1.121
  YS02001784           JUNCTION        0.33          0.420        1.070
  YS02001786           JUNCTION        0.25          0.278        1.152
  YS02001882           JUNCTION        0.31          0.830        0.000
  YS02001884           JUNCTION        0.32          0.815        0.055
  YS02001887           JUNCTION        0.34          0.856        0.094
  YS02001890           JUNCTION        0.35          0.760        0.000
  YS02001895           JUNCTION        0.30          0.652        0.098
  YS02001898           JUNCTION        0.29          0.740        0.000
  YS02001901           JUNCTION        0.33          0.833        0.037
  YS02001904           JUNCTION        0.33          0.794        0.056
  YS02001907           JUNCTION        0.50          0.950        0.000
  YS02001910           JUNCTION        0.37          1.100        0.000
  YS02001915           JUNCTION        0.31          1.000        0.000
  YS02001918           JUNCTION        0.24          0.810        0.000
  YS02001920           JUNCTION        0.25          1.140        0.000
  YS02001923           JUNCTION        0.01          0.820        0.000
  YS02001926           JUNCTION        0.02          0.900        0.000
  YS02001929           JUNCTION        0.01          0.780        0.000
  YS02006553           JUNCTION        0.51          1.074        0.116
  YS02006556           JUNCTION        0.43          1.027        0.323
  YS02006558           JUNCTION        0.43          0.989        0.411
  YS02006561           JUNCTION        0.21          0.152        0.998
  YS02163301           JUNCTION        0.59          0.947        0.083
  YS02163601           JUNCTION        0.62          1.068        0.012
  YS02164001           JUNCTION        0.54          0.985        0.115
  
  
  *********************
  Node Flooding Summary
  *********************
  
  Flooding refers to all water that overflows a node, whether it ponds or not.
  --------------------------------------------------------------------------
                                                             Total   Maximum
                                 Maximum   Time of Max       Flood    Ponded
                        Hours       Rate    Occurrence      Volume     Depth
  Node                 Flooded       LPS   days hr:min    10^6 ltr    Meters
  --------------------------------------------------------------------------
  WS02006112              0.01   1405.86      0  00:00       0.047     0.000
  WS02006247              0.01      0.45      0  02:10       0.000     0.000
  WS02006248              0.01      1.56      0  02:56       0.000     0.000
  WS02006249              0.52    101.55      0  01:59       0.130     0.000
  WS02006252              0.01      0.91      0  01:56       0.000     0.000
  WS02006256              0.95    288.81      0  03:05       0.297     0.000
  YS02001580              0.01    127.79      0  01:47       0.001     0.000
  YS02001583              0.01    155.76      0  01:47       0.000     0.000
  YS02001586              0.30    189.07      0  01:53       0.122     0.000
  YS02001590              0.01     54.71      0  01:46       0.000     0.000
  YS02001600              0.01      6.23      0  01:46       0.000     0.000
  YS02001601              0.43    845.81      0  01:51       0.709     0.000
  YS02001602              0.32     61.99      0  01:51       0.065     0.000
  YS02001605              0.01      1.79      0  01:47       0.000     0.000
  YS02001610              0.28    372.15      0  01:53       0.246     0.000
  YS02001613              0.01     23.40      0  01:47       0.000     0.000
  YS02001616              0.01     60.97      0  01:47       0.000     0.000
  YS02001619              0.01    199.05      0  01:47       0.001     0.000
  YS02001622              0.01     75.58      0  01:47       0.000     0.000
  YS02001625              0.24    939.16      0  01:52       0.368     0.000
  YS02001629              0.05    245.34      0  01:47       0.014     0.000
  YS02001633              0.01      1.22      0  01:49       0.000     0.000
  YS02001644              0.03    226.64      0  01:51       0.018     0.000
  YS02001770              0.01     13.01      0  01:50       0.000     0.000
  YS02001779              0.02    497.69      0  01:49       0.008     0.000
  YS02001882              0.01     65.69      0  01:48       0.000     0.000
  YS02001890              0.06    125.01      0  01:48       0.011     0.000
  YS02001898              0.01    261.36      0  01:48       0.001     0.000
  YS02001907              0.19   1225.77      0  01:50       0.401     0.000
  YS02001910              0.01     43.89      0  01:49       0.000     0.000
  YS02001915              0.01     48.09      0  01:49       0.000     0.000
  YS02001918              0.01    217.93      0  01:49       0.003     0.000
  YS02001920              0.01    168.64      0  01:49       0.000     0.000
  YS02001923              0.01    205.37      0  01:49       0.001     0.000
  YS02001926              0.01    409.95      0  01:49       0.003     0.000
  YS02001929              0.01    900.79      0  01:49       0.003     0.000
  
  
  **********************
  Storage Volume Summary
  **********************
  
  --------------------------------------------------------------------------------------------------
                         Average     Avg  Evap Exfil       Maximum     Max    Time of Max    Maximum
                          Volume    Pcnt  Pcnt  Pcnt        Volume    Pcnt     Occurrence    Outflow
  Storage Unit           1000 m3    Full  Loss  Loss       1000 m3    Full    days hr:min        LPS
  --------------------------------------------------------------------------------------------------
  CC-storage               1.926      30     0     0         3.863      60       0  02:25    1766.00
  JK-storage               0.071      24     0     0         0.202      69       0  01:55    2300.00
  
  
  ***********************
  Outfall Loading Summary
  ***********************
  
  -----------------------------------------------------------
                         Flow       Avg       Max       Total
                         Freq      Flow      Flow      Volume
  Outfall Node           Pcnt       LPS       LPS    10^6 ltr
  -----------------------------------------------------------
  CC-1                  31.40    683.00    683.00       3.190
  CC-2                  35.37    683.00    683.00       3.489
  JK-1                   3.94   1000.00   1000.00       0.630
  JK-2                   8.85   1000.00   1000.00       1.254
  WSC                   99.99    178.84    554.93       3.649
  -----------------------------------------------------------
  System                35.91   3544.84    554.93      12.211
  
  
  ********************
  Link Flow Summary
  ********************
  
  -----------------------------------------------------------------------------
                                 Maximum  Time of Max   Maximum    Max/    Max/
                                  |Flow|   Occurrence   |Veloc|    Full    Full
  Link                 Type          LPS  days hr:min     m/sec    Flow   Depth
  -----------------------------------------------------------------------------
  1                    CONDUIT    554.93     0  02:25      2.83    0.19    0.30
  WS02003060WS02003069 CONDUIT    552.91     0  02:22      1.64    0.22    0.34
  WS02003066WSF200     CONDUIT    536.37     0  02:22      2.85    0.09    0.22
  WS02003067WS02003066 CONDUIT    536.35     0  02:22      1.21    0.17    0.42
  WS02003069WS02003072 CONDUIT    553.15     0  02:23      1.37    0.27    0.39
  WS02003072WS02003073 CONDUIT    553.15     0  02:24      1.44    1.19    0.37
  WS02004401WS02004402 CONDUIT   1248.69     0  00:01      2.52    1.50    0.89
  WS02004402WS02004403 CONDUIT    929.44     0  00:01      2.21    1.34    0.91
  WS02004403WS02004404 CONDUIT    877.02     0  00:01      2.01    0.63    0.96
  WS02004404WS02004405 CONDUIT    827.31     0  00:01      2.30    8.11    0.98
  WS02004405WS02004406 CONDUIT    768.45     0  00:02      2.19    1.52    0.96
  WS02004406WS02004407 CONDUIT    537.84     0  02:13      1.04    0.24    0.63
  WS02004407WS02004409 CONDUIT    537.59     0  02:13      2.06    0.19    0.48
  WS02004409WS02004410 CONDUIT    536.61     0  02:20      1.39    0.69    0.67
  WS02004410WS02004411 CONDUIT    536.56     0  02:24      1.32    0.73    0.69
  WS02004411WS02004412 CONDUIT    536.47     0  02:24      1.29    0.76    0.69
  WS02004412WS02004413 CONDUIT    536.55     0  02:25      1.25    0.36    0.78
  WS02004413WS02003067 CONDUIT    536.32     0  02:21      1.11    0.23    0.59
  WS02006109WS02006110 CONDUIT   1446.81     0  00:00      2.88    2.78    1.00
  WS02006110WS02006113 CONDUIT    565.41     0  02:56      1.36    0.51    1.00
  WS02006111WS02006112 CONDUIT   2307.30     0  00:00      9.18    1.10    1.00
  WS02006112WS02006115 CONDUIT    953.54     0  00:00      1.24    0.56    1.00
  WS02006113WS02006111 CONDUIT   1180.41     0  00:00      2.46    1.41    1.00
  WS02006115WS02006116 CONDUIT   1264.47     0  00:00      1.74    1.62    1.00
  WS02006116WS02004401 CONDUIT   1786.04     0  00:00      2.94    2.46    0.86
  WS02006228WS02006109 CONDUIT    869.18     0  00:00      1.91    3.80    1.00
  WS02006229WS02006228 CONDUIT    552.55     0  02:56      1.10    1.83    1.00
  WS02006230WS02006229 CONDUIT    696.39     0  00:00      1.89   15.50    1.00
  WS02006231WS02006230 CONDUIT    571.33     0  02:55      1.91    8.67    1.00
  WS02006232WS02006231 CONDUIT    572.97     0  02:55      1.80    1.20    1.00
  WS02006234WS02006232 CONDUIT    571.47     0  02:55      1.48    1.16    1.00
  WS02006235WS02006234 CONDUIT    566.97     0  02:55      1.47    5.98    1.00
  WS02006238WS02006235 CONDUIT    420.53     0  02:25      1.39    0.94    1.00
  WS02006239WS02006238 CONDUIT    421.17     0  02:56      1.20    1.35    1.00
  WS02006240WS02006239 CONDUIT    420.91     0  02:57      1.29    1.32    1.00
  WS02006242WS02006240 CONDUIT    419.10     0  02:57      1.18    1.66    1.00
  WS02006243WS02006242 CONDUIT    419.08     0  02:35      1.43    0.90    1.00
  WS02006245WS02006243 CONDUIT    418.37     0  02:35      1.44    1.24    1.00
  WS02006247WS02006245 CONDUIT    417.61     0  02:35      1.40    3.31    1.00
  WS02006248WS02006247 CONDUIT    419.27     0  02:57      1.42    0.91    1.00
  WS02006249WS02006248 CONDUIT    422.24     0  02:57      1.38    2.31    1.00
  WS02006251WS02006249 CONDUIT    452.97     0  00:05      1.96    1.31    1.00
  WS02006252WS02006251 CONDUIT    406.81     0  01:59     18.65    1.49    1.00
  WS02006256WS02006235 CONDUIT    288.70     0  05:05      4.21    3.06    1.00
  WSF200WS02003060     CONDUIT    536.53     0  02:26      2.06    0.12    0.28
  YS02001580YS02001583 CONDUIT    202.50     0  01:47      0.94    0.78    1.00
  YS02001583YS02001586 CONDUIT    221.23     0  01:47      1.00    0.33    1.00
  YS02001586YS02001590 CONDUIT    317.92     0  02:02      1.29    0.56    1.00
  YS02001590YS02001593 CONDUIT    317.96     0  02:03      1.12    2.00    1.00
  YS02001593YS02001596 CONDUIT    318.03     0  02:01      1.74    0.50    1.00
  YS02001596YS02001600 CONDUIT    317.96     0  02:01      1.21    0.62    1.00
  YS02001600YS02001601 CONDUIT    318.00     0  02:04      1.12    0.55    1.00
  YS02001601YS02001602 CONDUIT    577.46     0  01:47      2.04    2.09    1.00
  YS02001602YS02001605 CONDUIT    577.48     0  01:47      2.04   12.22    1.00
  YS02001605YS02001607 CONDUIT    576.97     0  01:47      2.04    3.16    1.00
  YS02001607YS02001610 CONDUIT    537.21     0  01:47      0.71    0.51    1.00
  YS02001610YS02001613 CONDUIT    498.91     0  01:47      0.67    0.58    1.00
  YS02001613YS02001616 CONDUIT    497.81     0  02:12      0.66    0.43    1.00
  YS02001616YS02001619 CONDUIT    499.04     0  02:12      0.67    0.87    1.00
  YS02001619YS02001622 CONDUIT    905.15     0  01:47      1.29    1.33    1.00
  YS02001622YS02001625 CONDUIT    906.06     0  01:47      1.15    0.48    1.00
  YS02001625YS02001629 CONDUIT    873.00     0  02:09      1.11    0.42    1.00
  YS02001629YS02163301 CONDUIT    877.70     0  02:09      1.12    1.08    1.00
  YS02001633YS02163601 CONDUIT   1428.50     0  01:48      1.82    1.50    1.00
  YS02001641YS02001644 CONDUIT   1430.03     0  01:48      1.82    4.62    1.00
  YS02001644YS02001647 CONDUIT   1945.89     0  01:48      2.48    1.14    1.00
  YS02001647YS02001649 CONDUIT   1949.55     0  01:48      2.48    1.03    1.00
  YS02001649YS02001757 CONDUIT   2233.14     0  01:49      2.84    1.36    1.00
  YS02001652YS02001649 CONDUIT    751.14     0  01:52      0.96    0.37    1.00
  YS02001655YS02001652 CONDUIT    748.43     0  01:52      1.49    0.36    1.00
  YS02001658YS02001655 CONDUIT    747.33     0  01:49      2.07    0.32    1.00
  YS02001661YS02001658 CONDUIT    772.95     0  01:50      2.48    0.30    0.99
  YS02001664YS02001661 CONDUIT    817.47     0  01:51      2.48    0.26    0.72
  YS02001745YS02001748 CONDUIT    633.40     0  01:50      2.37    0.24    0.89
  YS02001748YS02001751 CONDUIT    497.36     0  01:51      1.91    0.25    1.00
  YS02001751YS02001754 CONDUIT    498.21     0  01:51      1.57    0.24    1.00
  YS02001754YS02001757 CONDUIT    498.24     0  01:51      0.63    0.20    1.00
  YS02001757CaochengTiaoxuchi CONDUIT   3463.19     0  01:51      4.77    1.50    1.00
  YS02001759YS02001757 CONDUIT   1374.32     0  01:50      1.75    0.98    1.00
  YS02001762YS02001759 CONDUIT    807.86     0  01:50      1.03    0.93    1.00
  YS02001765YS02001762 CONDUIT    803.32     0  01:50      1.02    0.75    1.00
  YS02001767YS02001765 CONDUIT    798.25     0  01:50      1.02    1.00    1.00
  YS02001770YS02001767 CONDUIT    793.76     0  01:50      1.01    3.14    1.00
  YS02001774YS02001770 CONDUIT    537.25     0  01:49      0.68    0.34    1.00
  YS02001779YS02001774 CONDUIT    547.71     0  01:49      0.70    0.28    1.00
  YS02001783YS02001784 CONDUIT   1156.47     0  01:49      2.30    1.59    1.00
  YS02001784YS02001785 CONDUIT   1156.12     0  01:49      2.30    2.69    1.00
  YS02001786YS02001788 CONDUIT   1156.99     0  01:49      2.47    2.23    0.89
  YS02001788YS02001790 CONDUIT   1160.41     0  01:52      2.69    0.86    0.84
  YS02001790YS02001791 CONDUIT   1280.29     0  01:51      3.41    1.39    0.70
  YS02001791YS02001793 CONDUIT   1226.16     0  01:58      6.71    0.53    0.43
  YS02001793JiankangQianchi CONDUIT   1232.31     0  01:58      2.47    0.10    0.64
  YS02001882YS02001884 CONDUIT     96.28     0  01:48      0.15    0.11    1.00
  YS02001884YS02001887 CONDUIT    167.00     0  01:48      0.21    0.22    1.00
  YS02001887YS02001890 CONDUIT    619.81     0  01:49      0.79    1.06    1.00
  YS02001890YS02001895 CONDUIT    602.85     0  01:48      0.77    0.28    1.00
  YS02001895YS02001898 CONDUIT    605.59     0  01:48      0.77    1.05    1.00
  YS02001898YS02001901 CONDUIT    608.38     0  01:48      0.77    0.39    1.00
  YS02001901YS02001904 CONDUIT    609.35     0  01:48      0.78    0.95    1.00
  YS02001904YS02001907 CONDUIT    609.39     0  01:48      0.78    0.21    1.00
  YS02001907YS02006553 CONDUIT    794.11     0  02:02      0.88    0.93    1.00
  YS02001910YS02001907 CONDUIT   1082.35     0  01:50      1.38    0.61    1.00
  YS02001915YS02001910 CONDUIT   1082.04     0  01:50      1.38    0.54    1.00
  YS02001918YS02001915 CONDUIT    746.15     0  01:48      0.97    0.41    1.00
  YS02001920YS02001918 CONDUIT    696.12     0  01:49      0.89    0.67    1.00
  YS02001923YS02001920 CONDUIT    717.03     0  01:49      0.96    0.32    1.00
  YS02001926YS02001923 CONDUIT    974.02     0  01:49      1.41    1.39    1.00
  YS02001929YS02001926 CONDUIT    852.74     0  01:49      1.26    0.40    1.00
  YS02006553YS02006556 CONDUIT    794.33     0  02:02      1.01    0.68    1.00
  YS02006556YS02006558 CONDUIT    796.72     0  02:02      1.01    0.63    1.00
  YS02006558YS02006561 CONDUIT   1191.52     0  01:48      4.22    2.63    1.00
  YS02006561YS02001783 CONDUIT   1155.68     0  01:49      2.30    0.60    1.00
  YS02163301YS02001633 CONDUIT    876.77     0  02:09      1.12    0.82    1.00
  YS02163601YS02164001 CONDUIT   1429.08     0  01:48      1.82    1.27    1.00
  YS02164001YS02001641 CONDUIT   1430.22     0  01:48      1.82    1.95    1.00
  CC-R1                PUMP       683.00     0  00:05              1.00
  CC-R2                PUMP       683.00     0  00:05              1.00
  CC-S1                PUMP       200.00     0  00:05              1.00
  CC-S2                PUMP       200.00     0  00:05              1.00
  JK-R1                PUMP      1000.00     0  00:10              1.00
  JK-R2                PUMP      1000.00     0  00:10              1.00
  JK-S                 PUMP       300.00     0  00:10              1.00
  
  
  ***************************
  Flow Classification Summary
  ***************************
  
  -------------------------------------------------------------------------------------
                      Adjusted    ---------- Fraction of Time in Flow Class ---------- 
                       /Actual         Up    Down  Sub   Sup   Up    Down  Norm  Inlet 
  Conduit               Length    Dry  Dry   Dry   Crit  Crit  Crit  Crit  Ltd   Ctrl  
  -------------------------------------------------------------------------------------
  1                       1.00   0.00  0.00  0.00  0.00  1.00  0.00  0.00  0.54  0.00
  WS02003060WS02003069    1.00   0.00  0.00  0.00  0.93  0.07  0.00  0.00  0.80  0.00
  WS02003066WSF200        1.00   0.02  0.00  0.00  0.00  0.98  0.00  0.00  0.90  0.00
  WS02003067WS02003066    1.00   0.01  0.00  0.00  0.99  0.00  0.00  0.00  0.00  0.00
  WS02003069WS02003072    1.00   0.00  0.00  0.00  1.00  0.00  0.00  0.00  0.83  0.00
  WS02003072WS02003073    1.00   0.00  0.00  0.00  0.00  0.00  0.00  1.00  0.00  0.00
  WS02004401WS02004402    1.00   0.00  0.00  0.00  1.00  0.00  0.00  0.00  0.00  0.00
  WS02004402WS02004403    1.00   0.00  0.00  0.00  1.00  0.00  0.00  0.00  0.00  0.00
  WS02004403WS02004404    1.00   0.00  0.00  0.00  1.00  0.00  0.00  0.00  0.00  0.00
  WS02004404WS02004405    1.00   0.00  0.00  0.00  1.00  0.00  0.00  0.00  0.01  0.00
  WS02004405WS02004406    1.00   0.00  0.00  0.00  1.00  0.00  0.00  0.00  0.00  0.00
  WS02004406WS02004407    1.00   0.00  0.00  0.00  1.00  0.00  0.00  0.00  0.00  0.00
  WS02004407WS02004409    1.00   0.00  0.00  0.00  0.98  0.01  0.00  0.00  0.99  0.00
  WS02004409WS02004410    1.00   0.00  0.00  0.00  1.00  0.00  0.00  0.00  0.00  0.00
  WS02004410WS02004411    1.00   0.00  0.00  0.00  1.00  0.00  0.00  0.00  0.00  0.00
  WS02004411WS02004412    1.00   0.00  0.00  0.00  0.99  0.00  0.00  0.00  0.00  0.00
  WS02004412WS02004413    1.00   0.01  0.00  0.00  0.99  0.00  0.00  0.00  0.00  0.00
  WS02004413WS02003067    1.00   0.01  0.00  0.00  0.00  0.00  0.99  0.00  0.00  0.00
  WS02006109WS02006110    1.00   0.00  0.00  0.00  1.00  0.00  0.00  0.00  0.00  0.00
  WS02006110WS02006113    1.00   0.00  0.00  0.00  1.00  0.00  0.00  0.00  0.00  0.00
  WS02006111WS02006112    1.00   0.00  0.00  0.00  1.00  0.00  0.00  0.00  1.00  0.00
  WS02006112WS02006115    1.00   0.00  0.00  0.00  1.00  0.00  0.00  0.00  0.00  0.00
  WS02006113WS02006111    1.00   0.00  0.00  0.00  0.00  1.00  0.00  0.00  0.10  0.00
  WS02006115WS02006116    1.00   0.00  0.00  0.00  1.00  0.00  0.00  0.00  0.00  0.00
  WS02006116WS02004401    1.00   0.00  0.00  0.00  1.00  0.00  0.00  0.00  0.00  0.00
  WS02006228WS02006109    1.00   0.00  0.00  0.00  1.00  0.00  0.00  0.00  0.00  0.00
  WS02006229WS02006228    1.00   0.00  0.00  0.00  1.00  0.00  0.00  0.00  0.00  0.00
  WS02006230WS02006229    1.00   0.00  0.00  0.00  1.00  0.00  0.00  0.00  0.01  0.00
  WS02006231WS02006230    1.00   0.00  0.00  0.00  0.24  0.00  0.76  0.00  0.00  0.00
  WS02006232WS02006231    1.00   0.00  0.00  0.00  0.98  0.00  0.02  0.00  0.00  0.00
  WS02006234WS02006232    1.00   0.00  0.00  0.00  1.00  0.00  0.00  0.00  0.19  0.00
  WS02006235WS02006234    1.00   0.00  0.00  0.00  0.76  0.00  0.23  0.00  0.00  0.00
  WS02006238WS02006235    1.00   0.00  0.00  0.00  1.00  0.00  0.00  0.00  0.00  0.00
  WS02006239WS02006238    1.00   0.00  0.00  0.00  0.99  0.00  0.00  0.00  0.41  0.00
  WS02006240WS02006239    1.00   0.01  0.00  0.00  0.69  0.00  0.00  0.30  0.03  0.00
  WS02006242WS02006240    1.00   0.01  0.00  0.00  0.98  0.00  0.01  0.00  0.00  0.00
  WS02006243WS02006242    1.00   0.01  0.00  0.00  0.99  0.00  0.00  0.00  0.69  0.00
  WS02006245WS02006243    1.00   0.01  0.00  0.00  0.81  0.00  0.00  0.18  0.01  0.00
  WS02006247WS02006245    1.00   0.01  0.00  0.00  0.96  0.00  0.00  0.04  0.00  0.00
  WS02006248WS02006247    1.00   0.01  0.00  0.00  0.96  0.00  0.00  0.04  0.54  0.00
  WS02006249WS02006248    1.00   0.01  0.00  0.00  0.56  0.00  0.43  0.00  0.00  0.00
  WS02006251WS02006249    1.00   0.01  0.01  0.00  0.98  0.01  0.00  0.00  0.69  0.00
  WS02006252WS02006251    1.00   0.01  0.45  0.00  0.12  0.00  0.43  0.00  0.01  0.00
  WS02006256WS02006235    1.00   0.00  0.00  0.00  0.99  0.01  0.00  0.00  0.01  0.00
  WSF200WS02003060        1.00   0.00  0.02  0.00  0.38  0.60  0.00  0.00  0.77  0.00
  YS02001580YS02001583    1.00   0.26  0.47  0.00  0.28  0.00  0.00  0.00  0.71  0.00
  YS02001583YS02001586    1.00   0.35  0.24  0.00  0.40  0.00  0.00  0.00  0.71  0.00
  YS02001586YS02001590    1.00   0.15  0.00  0.00  0.57  0.03  0.00  0.25  0.32  0.00
  YS02001590YS02001593    1.00   0.15  0.00  0.00  0.17  0.00  0.67  0.00  0.00  0.00
  YS02001593YS02001596    1.00   0.16  0.00  0.00  0.20  0.02  0.00  0.63  0.01  0.00
  YS02001596YS02001600    1.00   0.16  0.00  0.00  0.30  0.03  0.00  0.51  0.05  0.00
  YS02001600YS02001601    1.00   0.16  0.00  0.00  0.84  0.00  0.00  0.00  0.64  0.00
  YS02001601YS02001602    1.00   0.15  0.01  0.00  0.84  0.00  0.00  0.00  0.00  0.00
  YS02001602YS02001605    1.00   0.16  0.00  0.00  0.84  0.00  0.00  0.00  0.00  0.00
  YS02001605YS02001607    1.00   0.16  0.00  0.00  0.84  0.00  0.00  0.00  0.00  0.00
  YS02001607YS02001610    1.00   0.16  0.00  0.00  0.84  0.00  0.00  0.00  0.02  0.00
  YS02001610YS02001613    1.00   0.15  0.00  0.00  0.85  0.00  0.00  0.00  0.01  0.00
  YS02001613YS02001616    1.00   0.15  0.00  0.00  0.85  0.00  0.00  0.00  0.01  0.00
  YS02001616YS02001619    1.00   0.15  0.00  0.00  0.85  0.00  0.00  0.00  0.00  0.00
  YS02001619YS02001622    1.00   0.15  0.00  0.00  0.85  0.00  0.00  0.00  0.36  0.00
  YS02001622YS02001625    1.00   0.15  0.00  0.00  0.85  0.00  0.00  0.00  0.05  0.00
  YS02001625YS02001629    1.00   0.15  0.03  0.00  0.23  0.00  0.59  0.00  0.00  0.00
  YS02001629YS02163301    1.00   0.17  0.01  0.00  0.82  0.00  0.00  0.00  0.00  0.00
  YS02001633YS02163601    1.00   0.16  0.00  0.00  0.84  0.00  0.00  0.00  0.02  0.00
  YS02001641YS02001644    1.00   0.15  0.00  0.00  0.85  0.00  0.00  0.00  0.00  0.00
  YS02001644YS02001647    1.00   0.15  0.03  0.00  0.82  0.00  0.00  0.00  0.00  0.00
  YS02001647YS02001649    1.00   0.16  0.02  0.00  0.49  0.33  0.00  0.00  0.60  0.00
  YS02001649YS02001757    1.00   0.00  0.16  0.00  0.47  0.37  0.00  0.00  0.23  0.00
  YS02001652YS02001649    1.00   0.16  0.00  0.00  0.82  0.02  0.00  0.00  0.65  0.00
  YS02001655YS02001652    1.00   0.16  0.00  0.00  0.24  0.03  0.00  0.57  0.05  0.00
  YS02001658YS02001655    1.00   0.16  0.00  0.00  0.49  0.35  0.00  0.00  0.73  0.00
  YS02001661YS02001658    1.00   0.16  0.00  0.00  0.34  0.50  0.00  0.00  0.76  0.00
  YS02001664YS02001661    1.00   0.15  0.00  0.00  0.64  0.21  0.00  0.00  0.86  0.00
  YS02001745YS02001748    1.00   0.15  0.00  0.00  0.09  0.02  0.00  0.74  0.04  0.00
  YS02001748YS02001751    1.00   0.15  0.00  0.00  0.54  0.31  0.00  0.00  0.69  0.00
  YS02001751YS02001754    1.00   0.15  0.00  0.00  0.20  0.01  0.00  0.64  0.02  0.00
  YS02001754YS02001757    1.00   0.00  0.15  0.00  0.84  0.01  0.00  0.00  0.74  0.00
  YS02001757CaochengTiaoxuchi    1.00   0.00  0.00  0.00  0.92  0.08  0.00  0.00  0.86  0.00
  YS02001759YS02001757    1.00   0.00  0.15  0.00  0.84  0.01  0.00  0.00  0.58  0.00
  YS02001762YS02001759    1.00   0.15  0.00  0.00  0.84  0.00  0.00  0.00  0.04  0.00
  YS02001765YS02001762    1.00   0.16  0.00  0.00  0.84  0.00  0.00  0.00  0.63  0.00
  YS02001767YS02001765    1.00   0.15  0.00  0.00  0.85  0.00  0.00  0.00  0.00  0.00
  YS02001770YS02001767    1.00   0.15  0.00  0.00  0.85  0.00  0.00  0.00  0.00  0.00
  YS02001774YS02001770    1.00   0.16  0.00  0.00  0.66  0.00  0.18  0.00  0.03  0.00
  YS02001779YS02001774    1.00   0.16  0.37  0.00  0.47  0.00  0.00  0.00  0.65  0.00
  YS02001783YS02001784    1.00   0.19  0.00  0.00  0.81  0.01  0.00  0.00  0.58  0.00
  YS02001784YS02001785    1.00   0.19  0.00  0.00  0.81  0.00  0.00  0.00  0.44  0.00
  YS02001786YS02001788    1.00   0.19  0.00  0.00  0.46  0.35  0.00  0.00  0.00  0.00
  YS02001788YS02001790    1.00   0.19  0.00  0.00  0.22  0.59  0.00  0.00  0.67  0.00
  YS02001790YS02001791    1.00   0.20  0.00  0.00  0.02  0.78  0.00  0.00  0.15  0.00
  YS02001791YS02001793    1.00   0.20  0.00  0.00  0.00  0.80  0.00  0.00  0.00  0.00
  YS02001793JiankangQianchi    1.00   0.00  0.20  0.00  0.75  0.04  0.00  0.00  0.78  0.00
  YS02001882YS02001884    1.00   0.17  0.00  0.00  0.82  0.00  0.00  0.00  0.00  0.00
  YS02001884YS02001887    1.00   0.16  0.01  0.00  0.83  0.00  0.00  0.00  0.00  0.00
  YS02001887YS02001890    1.00   0.15  0.00  0.00  0.84  0.00  0.01  0.00  0.00  0.00
  YS02001890YS02001895    1.00   0.16  0.02  0.00  0.82  0.00  0.00  0.00  0.00  0.00
  YS02001895YS02001898    1.00   0.18  0.00  0.00  0.81  0.00  0.01  0.00  0.00  0.00
  YS02001898YS02001901    1.00   0.18  0.00  0.00  0.82  0.00  0.00  0.00  0.01  0.00
  YS02001901YS02001904    1.00   0.18  0.00  0.00  0.82  0.00  0.00  0.00  0.00  0.00
  YS02001904YS02001907    1.00   0.15  0.03  0.00  0.82  0.00  0.00  0.00  0.00  0.00
  YS02001907YS02006553    1.00   0.15  0.01  0.00  0.84  0.00  0.00  0.00  0.01  0.00
  YS02001910YS02001907    1.00   0.15  0.00  0.00  0.83  0.00  0.00  0.01  0.03  0.00
  YS02001915YS02001910    1.00   0.15  0.00  0.00  0.83  0.02  0.00  0.00  0.02  0.00
  YS02001918YS02001915    1.00   0.15  0.02  0.00  0.82  0.00  0.00  0.00  0.75  0.00
  YS02001920YS02001918    1.00   0.16  0.01  0.00  0.82  0.00  0.00  0.00  0.00  0.00
  YS02001923YS02001920    1.00   0.16  0.00  0.00  0.84  0.00  0.00  0.00  0.80  0.00
  YS02001926YS02001923    1.00   0.15  0.01  0.00  0.09  0.00  0.75  0.00  0.00  0.00
  YS02001929YS02001926    1.00   0.15  0.00  0.00  0.85  0.00  0.00  0.00  0.83  0.00
  YS02006553YS02006556    1.00   0.16  0.00  0.00  0.84  0.00  0.00  0.00  0.02  0.00
  YS02006556YS02006558    1.00   0.15  0.00  0.00  0.84  0.00  0.00  0.00  0.00  0.00
  YS02006558YS02006561    1.00   0.19  0.00  0.00  0.08  0.73  0.00  0.00  0.17  0.00
  YS02006561YS02001783    1.00   0.19  0.00  0.00  0.25  0.56  0.00  0.00  0.72  0.00
  YS02163301YS02001633    1.00   0.15  0.02  0.00  0.83  0.00  0.00  0.00  0.00  0.00
  YS02163601YS02164001    1.00   0.16  0.01  0.00  0.84  0.00  0.00  0.00  0.01  0.00
  YS02164001YS02001641    1.00   0.16  0.01  0.00  0.84  0.00  0.00  0.00  0.00  0.00
  
  
  *************************
  Conduit Surcharge Summary
  *************************
  
  ----------------------------------------------------------------------------
                                                           Hours        Hours 
                         --------- Hours Full --------   Above Full   Capacity
  Conduit                Both Ends  Upstream  Dnstream   Normal Flow   Limited
  ----------------------------------------------------------------------------
  WS02003072WS02003073        0.01      0.01      0.01      0.60         0.01
  WS02004401WS02004402        0.01      0.01      0.01      0.01         0.01
  WS02004402WS02004403        0.01      0.01      0.01      0.02         0.01
  WS02004403WS02004404        0.01      0.01      0.01      0.01         0.01
  WS02004404WS02004405        0.01      0.01      0.01      2.16         0.01
  WS02004405WS02004406        0.01      0.01      0.01      0.40         0.01
  WS02006109WS02006110        0.48      0.48      1.15      0.51         0.01
  WS02006110WS02006113        0.01      0.01      1.15      0.01         0.01
  WS02006111WS02006112        0.01      0.01      1.28      0.01         0.01
  WS02006112WS02006115        0.01      0.01      0.48      0.01         0.01
  WS02006113WS02006111        0.01      0.01      0.01      0.01         0.01
  WS02006115WS02006116        0.01      0.01      0.01      0.01         0.01
  WS02006116WS02004401        0.01      0.01      0.01      0.02         0.01
  WS02006228WS02006109        1.13      1.14      1.14      1.65         1.13
  WS02006229WS02006228        1.13      1.14      1.13      1.23         1.12
  WS02006230WS02006229        1.17      1.21      1.18      2.51         1.17
  WS02006231WS02006230        0.48      0.48      0.53      2.04         0.01
  WS02006232WS02006231        0.52      0.52      1.15      0.55         0.01
  WS02006234WS02006232        1.11      1.11      1.15      0.54         0.54
  WS02006235WS02006234        0.67      0.67      1.12      1.94         0.01
  WS02006238WS02006235        1.12      1.12      1.14      0.01         0.01
  WS02006239WS02006238        1.13      1.13      1.13      1.10         1.03
  WS02006240WS02006239        1.12      1.13      1.12      1.10         1.00
  WS02006242WS02006240        1.13      1.13      1.14      1.17         0.01
  WS02006243WS02006242        1.12      1.12      1.13      0.01         0.02
  WS02006245WS02006243        1.11      1.11      1.12      0.65         0.66
  WS02006247WS02006245        1.11      1.11      1.11      1.61         1.10
  WS02006248WS02006247        1.10      1.10      1.11      0.01         0.02
  WS02006249WS02006248        1.10      1.10      1.10      1.56         0.01
  WS02006251WS02006249        1.09      1.09      1.10      1.21         1.07
  WS02006252WS02006251        1.26      1.26      1.28      1.26         0.01
  WS02006256WS02006235        1.93      1.98      4.75      0.97         0.01
  YS02001580YS02001583        0.39      0.39      0.42      0.01         0.01
  YS02001583YS02001586        0.39      0.39      0.49      0.01         0.01
  YS02001586YS02001590        0.50      0.50      0.55      0.01         0.01
  YS02001590YS02001593        0.55      0.55      0.57      0.60         0.01
  YS02001593YS02001596        0.56      0.56      0.63      0.01         0.01
  YS02001596YS02001600        0.66      0.66      0.74      0.01         0.01
  YS02001600YS02001601        0.79      0.79      1.07      0.01         0.01
  YS02001601YS02001602        0.95      0.95      1.12      0.76         0.01
  YS02001602YS02001605        0.90      0.90      0.95      1.88         0.01
  YS02001605YS02001607        0.86      0.90      0.86      1.02         0.86
  YS02001607YS02001610        0.50      0.50      0.52      0.01         0.01
  YS02001610YS02001613        0.49      0.49      0.52      0.01         0.01
  YS02001613YS02001616        0.46      0.46      0.49      0.01         0.01
  YS02001616YS02001619        0.44      0.44      0.46      0.01         0.01
  YS02001619YS02001622        0.44      0.44      0.44      0.59         0.43
  YS02001622YS02001625        0.44      0.44      0.59      0.01         0.01
  YS02001625YS02001629        0.38      0.38      0.59      0.01         0.01
  YS02001629YS02163301        0.58      0.58      0.59      0.23         0.22
  YS02001633YS02163601        0.60      0.60      0.62      0.38         0.38
  YS02001641YS02001644        0.50      0.53      0.50      1.17         0.50
  YS02001644YS02001647        0.32      0.32      0.50      0.04         0.01
  YS02001647YS02001649        0.32      0.32      0.39      0.01         0.01
  YS02001649YS02001757        0.39      0.39      0.43      0.30         0.27
  YS02001652YS02001649        0.28      0.28      0.39      0.01         0.01
  YS02001655YS02001652        0.14      0.14      0.26      0.01         0.01
  YS02001658YS02001655        0.04      0.04      0.14      0.01         0.01
  YS02001661YS02001658        0.01      0.01      0.04      0.01         0.01
  YS02001664YS02001661        0.01      0.01      0.01      0.01         0.01
  YS02001745YS02001748        0.01      0.01      0.01      0.01         0.01
  YS02001748YS02001751        0.02      0.02      0.06      0.01         0.01
  YS02001751YS02001754        0.06      0.06      0.15      0.01         0.01
  YS02001754YS02001757        0.18      0.18      0.43      0.01         0.01
  YS02001757CaochengTiaoxuchi        0.31      0.43      0.92      0.28         0.13
  YS02001759YS02001757        0.34      0.34      0.43      0.01         0.02
  YS02001762YS02001759        0.32      0.32      0.34      0.01         0.02
  YS02001765YS02001762        0.29      0.29      0.32      0.01         0.01
  YS02001767YS02001765        0.26      0.26      0.29      0.01         0.02
  YS02001770YS02001767        0.26      0.26      0.26      0.37         0.23
  YS02001774YS02001770        0.25      0.25      0.30      0.01         0.01
  YS02001779YS02001774        0.16      0.16      0.30      0.01         0.01
  YS02001783YS02001784        0.33      0.35      0.33      0.45         0.33
  YS02001784YS02001785        0.25      0.33      0.25      0.60         0.25
  YS02001786YS02001788        0.01      0.25      0.01      0.52         0.01
  YS02001790YS02001791        0.01      0.01      0.01      0.32         0.01
  YS02001793JiankangQianchi        0.01      0.01      4.51      0.01         0.01
  YS02001882YS02001884        0.31      0.31      0.32      0.01         0.01
  YS02001884YS02001887        0.33      0.33      0.34      0.01         0.01
  YS02001887YS02001890        0.35      0.35      0.36      0.04         0.01
  YS02001890YS02001895        0.30      0.30      0.38      0.01         0.01
  YS02001895YS02001898        0.29      0.29      0.30      0.01         0.01
  YS02001898YS02001901        0.30      0.30      0.33      0.01         0.01
  YS02001901YS02001904        0.33      0.33      0.33      0.01         0.01
  YS02001904YS02001907        0.33      0.33      0.51      0.01         0.01
  YS02001907YS02006553        0.61      0.61      0.66      0.01         0.01
  YS02001910YS02001907        0.37      0.37      0.50      0.01         0.01
  YS02001915YS02001910        0.31      0.31      0.37      0.01         0.01
  YS02001918YS02001915        0.24      0.24      0.31      0.01         0.01
  YS02001920YS02001918        0.24      0.24      0.25      0.01         0.01
  YS02001923YS02001920        0.20      0.20      0.25      0.01         0.01
  YS02001926YS02001923        0.01      0.01      0.02      0.01         0.01
  YS02001929YS02001926        0.01      0.01      0.02      0.01         0.01
  YS02006553YS02006556        0.43      0.43      0.51      0.01         0.01
  YS02006556YS02006558        0.47      0.47      0.52      0.01         0.01
  YS02006558YS02006561        0.27      0.43      0.27      0.57         0.27
  YS02006561YS02001783        0.21      0.21      0.35      0.01         0.01
  YS02163301YS02001633        0.59      0.59      0.62      0.01         0.01
  YS02163601YS02164001        0.54      0.54      0.62      0.15         0.01
  YS02164001YS02001641        0.53      0.54      0.53      0.61         0.48
  
  
  ***************
  Pumping Summary
  ***************
  
  ---------------------------------------------------------------------------------------------------------
                                                  Min       Avg       Max     Total     Power    % Time Off
                        Percent   Number of      Flow      Flow      Flow    Volume     Usage    Pump Curve
  Pump                 Utilized   Start-Ups       LPS       LPS       LPS  10^6 ltr     Kw-hr    Low   High
  ---------------------------------------------------------------------------------------------------------
  CC-R1                   16.30          26      0.00    683.00    683.00     3.206     56.88    0.0   43.0
  CC-R2                   17.82          24      0.00    683.00    683.00     3.504     61.47    0.0   52.8
  CC-S1                   17.83          18      0.00    200.00    200.00     1.027      6.34    0.0    0.0
  CC-S2                   19.89          19      0.00    200.00    200.00     1.146      7.19    0.0    0.0
  JK-R1                    2.19          10      0.00   1000.00   1000.00     0.632      4.93    0.0    0.0
  JK-R2                    4.36          15      0.00   1000.00   1000.00     1.254     10.88    0.0    0.0
  JK-S                    11.84          22      0.00    300.00    300.00     1.023     17.96    0.0    0.0
  

  Analysis begun on:  Wed Sep  6 15:57:10 2023
  Analysis ended on:  Wed Sep  6 15:57:21 2023
  Total elapsed time: 00:00:11