
  OWA STORM WATER MANAGEMENT MODEL - VERSION v5.2.3 (OWA 2023-06-06)
  ------------------------------------------------------------

  WARNING 04: minimum elevation drop used for Conduit WS02004404WS02004405
  WARNING 03: negative offset ignored for Link YS02001904YS02001907
  
  ****************
  Analysis Options
  ****************
  Flow Units ............... LPS
  Process Models:
    Rainfall/Runoff ........ YES
    RDII ................... NO
    Snowmelt ............... NO
    Groundwater ............ NO
    Flow Routing ........... YES
    Ponding Allowed ........ NO
    Water Quality .......... NO
  Infiltration Method ...... HORTON
  Flow Routing Method ...... DYNWAVE
  Surcharge Method ......... EXTRAN
  Starting Date ............ 08/28/2015 08:00:00
  Ending Date .............. 08/28/2015 16:00:00
  Antecedent Dry Days ...... 8.0
  Report Time Step ......... 00:01:00
  Wet Time Step ............ 00:01:00
  Dry Time Step ............ 00:01:00
  Routing Time Step ........ 30.00 sec
  Variable Time Step ....... YES
  Maximum Trials ........... 8
  Number of Threads ........ 2
  Head Tolerance ........... 0.001500 m
  
  
  **************************        Volume         Depth
  Runoff Quantity Continuity     hectare-m            mm
  **************************     ---------       -------
  Initial LID Storage ......         0.049         1.488
  Total Precipitation ......         1.645        49.583
  Evaporation Loss .........         0.000         0.000
  Infiltration Loss ........         0.073         2.189
  Surface Runoff ...........         1.200        36.180
  Final Storage ............         0.422        12.727
  Continuity Error (%) .....        -0.051
  
  
  **************************        Volume        Volume
  Flow Routing Continuity        hectare-m      10^6 ltr
  **************************     ---------     ---------
  Dry Weather Inflow .......         0.025         0.251
  Wet Weather Inflow .......         1.200        11.997
  Groundwater Inflow .......         0.000         0.000
  RDII Inflow ..............         0.000         0.000
  External Inflow ..........         0.083         0.834
  External Outflow .........         1.217        12.170
  Flooding Loss ............         0.184         1.844
  Evaporation Loss .........         0.000         0.000
  Exfiltration Loss ........         0.000         0.000
  Initial Stored Volume ....         0.243         2.431
  Final Stored Volume ......         0.181         1.811
  Continuity Error (%) .....        -2.021
  
  
  *************************
  Highest Continuity Errors
  *************************
  Node YS02001583 (-15.29%)
  Node YS02001884 (4.61%)
  Node WS02006256 (-3.42%)
  Node YS02001774 (1.61%)
  Node WS02006111 (-1.15%)
  
  
  ***************************
  Time-Step Critical Elements
  ***************************
  Link WS02006252WS02006251 (31.23%)
  Link WS02004404WS02004405 (21.10%)
  Link WS02006238WS02006235 (20.55%)
  Link WS02003066WSF200 (6.01%)
  Link WS02006235WS02006234 (5.90%)
  
  
  ********************************
  Highest Flow Instability Indexes
  ********************************
  Link WS02006113WS02006111 (33)
  Link WS02006256WS02006235 (16)
  Link WS02006111WS02006112 (14)
  Link WS02006238WS02006235 (12)
  Link WS02006229WS02006228 (10)
  
  
  *********************************
  Most Frequent Nonconverging Nodes
  *********************************
  Node CC-1 (11.10%)
  Node CC-2 (11.10%)
  Node JK-1 (11.10%)
  Node JK-2 (11.10%)
  Node WSC (11.10%)
  
  
  *************************
  Routing Time Step Summary
  *************************
  Minimum Time Step           :     0.00 sec
  Average Time Step           :     2.73 sec
  Maximum Time Step           :    30.00 sec
  % of Time in Steady State   :     0.00
  Average Iterations per Step :     3.10
  % of Steps Not Converging   :    11.10
  Time Step Frequencies       :
     30.000 - 13.228 sec      :     0.01 %
     13.228 -  5.833 sec      :    17.16 %
      5.833 -  2.572 sec      :    26.06 %
      2.572 -  1.134 sec      :    20.68 %
      1.134 -  0.500 sec      :    36.09 %
  
  
  ***************************
  Subcatchment Runoff Summary
  ***************************
  
  ------------------------------------------------------------------------------------------------------------------------------
                            Total      Total      Total      Total     Imperv       Perv      Total       Total     Peak  Runoff
                           Precip      Runon       Evap      Infil     Runoff     Runoff     Runoff      Runoff   Runoff   Coeff
  Subcatchment                 mm         mm         mm         mm         mm         mm         mm    10^6 ltr      LPS
  ------------------------------------------------------------------------------------------------------------------------------
  sub60                     49.58       0.00       0.00       1.32      32.75       3.27      36.02        0.47   345.18   0.726
  sub61                     49.58       0.00       0.00       2.03      32.72       4.87      37.59        0.69   498.16   0.758
  sub62                     49.58       0.00       0.00       0.90      34.88       2.22      37.10        1.02   677.56   0.748
  sub63                     49.58       0.00       0.00       3.68      28.03       8.09      36.12        0.82   541.63   0.728
  sub64                     49.58       0.00       0.00       1.77      31.91       4.02      35.93        0.86   540.66   0.725
  sub65                     49.58       0.00       0.00       1.62      34.43       3.67      38.11        1.05   625.33   0.769
  sub66                     49.58       0.00       0.00       4.26      27.09       7.14      34.23        1.60   774.98   0.690
  sub67                     49.58       0.00       0.00       0.90      35.76       2.30      38.07        0.71   542.75   0.768
  sub68                     49.58       0.00       0.00       1.55      31.58       3.74      35.32        0.97   675.33   0.712
  sub69                     49.58       0.00       0.00       1.39      33.32       4.51      37.83        1.40   817.96   0.763
  sub70                     49.58       0.00       0.00       4.63      26.69       9.17      35.86        1.04   449.06   0.723
  sub71                     49.58       0.00       0.00       0.83      31.68       2.01      33.69        0.88   552.65   0.679
  sub72                     49.58       0.00       0.00       0.79      34.22       1.87      36.08        0.50   278.42   0.728
  

  ***********************
  LID Performance Summary
  ***********************

  --------------------------------------------------------------------------------------------------------------------
                                         Total      Evap     Infil   Surface    Drain    Initial     Final  Continuity
                                        Inflow      Loss      Loss   Outflow   Outflow   Storage   Storage       Error
  Subcatchment      LID Control             mm        mm        mm        mm        mm        mm        mm           %
  --------------------------------------------------------------------------------------------------------------------
  sub60             GreenRoof            49.58      0.00      0.00      0.00      0.00      7.05     56.70       -0.12
  sub61             GreenRoof            49.58      0.00      0.00      0.00      0.00      7.05     56.70       -0.12
  sub62             GreenRoof            49.58      0.00      0.00      0.00      0.00      7.05     56.70       -0.12
  sub63             GreenRoof            49.58      0.00      0.00      0.00      0.00      7.05     56.70       -0.12
  sub64             GreenRoof            49.58      0.00      0.00      0.00      0.00      7.05     56.70       -0.12
  sub65             GreenRoof            49.58      0.00      0.00      0.00      0.00      7.05     56.70       -0.12
  sub66             GreenRoof            49.58      0.00      0.00      0.00      0.00      7.05     56.70       -0.12
  sub67             GreenRoof            49.58      0.00      0.00      0.00      0.00      7.05     56.70       -0.12
  sub68             GreenRoof            49.58      0.00      0.00      0.00      0.00      7.05     56.70       -0.12
  sub69             GreenRoof            49.58      0.00      0.00      0.00      0.00      7.05     56.70       -0.12
  sub70             GreenRoof            49.58      0.00      0.00      0.00      0.00      7.05     56.70       -0.12
  sub71             GreenRoof            49.58      0.00      0.00      0.00      0.00      7.05     56.70       -0.12
  sub72             GreenRoof            49.58      0.00      0.00      0.00      0.00      7.05     56.70       -0.12
  
  ******************
  Node Depth Summary
  ******************
  
  ---------------------------------------------------------------------------------
                                 Average  Maximum  Maximum  Time of Max    Reported
                                   Depth    Depth      HGL   Occurrence   Max Depth
  Node                 Type       Meters   Meters   Meters  days hr:min      Meters
  ---------------------------------------------------------------------------------
  WS02003060           JUNCTION     0.20     0.38     5.31     0  02:39        0.38
  WS02003066           JUNCTION     0.17     0.30     5.85     0  02:39        0.30
  WS02003067           JUNCTION     0.47     0.70     6.02     0  02:39        0.70
  WS02003069           JUNCTION     0.22     0.43     5.01     0  02:40        0.43
  WS02003072           JUNCTION     0.28     0.50     4.87     0  02:40        0.50
  WS02003073           JUNCTION     0.16     0.30     4.36     0  02:41        0.30
  WS02004401           JUNCTION     0.55     0.85     6.85     0  02:36        0.85
  WS02004402           JUNCTION     0.58     0.88     6.84     0  02:36        0.88
  WS02004403           JUNCTION     0.61     0.89     6.82     0  02:37        0.89
  WS02004404           JUNCTION     0.68     0.96     6.81     0  02:37        0.96
  WS02004405           JUNCTION     0.68     0.95     6.80     0  02:37        0.95
  WS02004406           JUNCTION     0.70     0.96     6.79     0  02:37        0.96
  WS02004407           JUNCTION     0.15     0.30     6.61     0  02:37        0.30
  WS02004409           JUNCTION     0.34     0.67     6.44     0  02:37        0.67
  WS02004410           JUNCTION     0.37     0.68     6.40     0  02:38        0.68
  WS02004411           JUNCTION     0.39     0.69     6.37     0  02:38        0.69
  WS02004412           JUNCTION     0.42     0.70     6.34     0  02:38        0.70
  WS02004413           JUNCTION     0.58     0.86     6.33     0  02:38        0.86
  WS02006109           JUNCTION     0.58     1.11     7.73     0  03:21        1.03
  WS02006110           JUNCTION     0.60     1.03     7.61     0  02:51        0.99
  WS02006111           JUNCTION     0.15     0.90     7.60     0  00:00        0.40
  WS02006112           JUNCTION     0.69     2.68     8.56     0  00:00        1.14
  WS02006113           JUNCTION     0.23     1.40     8.29     0  00:00        0.46
  WS02006115           JUNCTION     0.42     1.65     7.79     0  00:00        0.86
  WS02006116           JUNCTION     0.51     1.06     7.10     0  00:00        0.83
  WS02006228           JUNCTION     0.57     1.15     7.80     0  03:20        1.06
  WS02006229           JUNCTION     0.54     1.10     7.79     0  03:01        1.05
  WS02006230           JUNCTION     0.52     1.24     7.99     0  02:25        1.17
  WS02006231           JUNCTION     0.34     1.18     8.30     0  02:02        0.93
  WS02006232           JUNCTION     0.46     1.74     8.78     0  03:20        1.16
  WS02006234           JUNCTION     0.38     1.81     8.97     0  03:20        1.21
  WS02006235           JUNCTION     0.41     1.35     8.51     0  03:20        1.32
  WS02006238           JUNCTION     0.44     1.36     8.51     0  03:01        1.36
  WS02006239           JUNCTION     0.40     1.59     8.80     0  03:20        1.36
  WS02006240           JUNCTION     0.37     2.09     9.38     0  03:20        1.33
  WS02006242           JUNCTION     0.43     1.42     8.69     0  03:20        1.39
  WS02006243           JUNCTION     0.35     1.48     8.90     0  03:20        1.26
  WS02006245           JUNCTION     0.35     1.21     8.69     0  03:01        1.21
  WS02006247           JUNCTION     0.37     1.20     8.70     0  03:01        1.20
  WS02006248           JUNCTION     0.34     1.10     8.69     0  03:01        1.10
  WS02006249           JUNCTION     0.37     1.09     8.69     0  02:02        1.09
  WS02006251           JUNCTION     0.36     1.33     9.00     0  02:02        1.13
  WS02006252           JUNCTION     0.27     1.50     9.74     0  00:15        0.69
  WS02006256           JUNCTION     0.87     2.35     9.28     0  00:05        2.35
  WSF200               JUNCTION     0.14     0.29     5.52     0  02:39        0.29
  YS02001580           JUNCTION     0.08     1.05     9.59     0  01:47        0.78
  YS02001583           JUNCTION     0.11     1.14     9.64     0  01:48        0.81
  YS02001586           JUNCTION     0.19     1.13     9.30     0  01:47        1.13
  YS02001590           JUNCTION     0.28     1.40     9.26     0  01:47        1.40
  YS02001593           JUNCTION     0.21     1.46     9.32     0  01:46        1.33
  YS02001596           JUNCTION     0.29     1.80     9.22     0  01:46        1.72
  YS02001600           JUNCTION     0.35     1.87     9.00     0  01:46        1.87
  YS02001601           JUNCTION     0.54     2.06     8.90     0  01:46        2.06
  YS02001602           JUNCTION     0.46     1.87     8.77     0  01:47        1.87
  YS02001605           JUNCTION     0.43     1.78     8.68     0  01:47        1.77
  YS02001607           JUNCTION     0.42     1.68     8.53     0  01:47        1.65
  YS02001610           JUNCTION     0.46     1.68     8.48     0  01:47        1.68
  YS02001613           JUNCTION     0.42     1.70     8.54     0  01:48        1.70
  YS02001616           JUNCTION     0.35     1.61     8.52     0  01:47        1.61
  YS02001619           JUNCTION     0.33     1.61     8.54     0  01:47        1.61
  YS02001622           JUNCTION     0.32     1.62     8.52     0  01:47        1.56
  YS02001625           JUNCTION     0.57     1.78     8.38     0  01:48        1.78
  YS02001629           JUNCTION     0.44     1.85     8.40     0  01:48        1.85
  YS02001633           JUNCTION     0.51     2.03     8.48     0  01:49        1.98
  YS02001641           JUNCTION     0.49     1.95     8.39     0  01:51        1.89
  YS02001644           JUNCTION     0.48     1.92     8.35     0  01:51        1.87
  YS02001647           JUNCTION     0.27     1.73     8.34     0  01:52        1.60
  YS02001649           JUNCTION     0.30     1.90     8.29     0  01:52        1.72
  YS02001652           JUNCTION     0.19     1.81     8.41     0  01:52        1.52
  YS02001655           JUNCTION     0.14     1.75     8.60     0  01:52        1.28
  YS02001658           JUNCTION     0.10     1.68     8.82     0  01:52        1.00
  YS02001661           JUNCTION     0.13     0.84     8.24     0  01:52        0.79
  YS02001664           JUNCTION     0.05     0.28     8.21     0  01:51        0.28
  YS02001745           JUNCTION     0.05     0.57     8.08     0  01:51        0.46
  YS02001748           JUNCTION     0.09     1.02     8.09     0  01:51        0.98
  YS02001751           JUNCTION     0.11     1.75     8.62     0  01:53        1.15
  YS02001754           JUNCTION     0.15     1.80     8.41     0  01:53        1.40
  YS02001757           JUNCTION     0.30     1.81     8.07     0  01:53        1.71
  YS02001759           JUNCTION     0.24     1.74     8.11     0  01:53        1.68
  YS02001762           JUNCTION     0.24     1.80     8.20     0  01:50        1.67
  YS02001765           JUNCTION     0.22     1.93     8.38     0  01:50        1.65
  YS02001767           JUNCTION     0.22     1.92     8.41     0  01:50        1.64
  YS02001770           JUNCTION     0.23     1.90     8.39     0  01:50        1.68
  YS02001774           JUNCTION     0.30     1.99     8.41     0  01:50        1.75
  YS02001779           JUNCTION     0.13     1.68     8.37     0  01:50        1.49
  YS02001783           JUNCTION     0.24     1.34     7.48     0  01:49        1.21
  YS02001784           JUNCTION     0.25     1.19     7.26     0  01:49        1.11
  YS02001786           JUNCTION     0.21     0.95     6.98     0  01:49        0.86
  YS02001788           JUNCTION     0.15     0.62     6.60     0  01:50        0.62
  YS02001790           JUNCTION     0.18     0.72     6.37     0  01:50        0.72
  YS02001791           JUNCTION     0.12     0.44     5.91     0  01:51        0.43
  YS02001793           JUNCTION     0.06     0.26     5.09     0  02:00        0.24
  YS02001882           JUNCTION     0.30     1.83     8.55     0  01:48        1.64
  YS02001884           JUNCTION     0.38     1.93     8.55     0  01:48        1.74
  YS02001887           JUNCTION     0.46     1.88     8.42     0  01:48        1.81
  YS02001890           JUNCTION     0.49     1.81     8.32     0  01:48        1.81
  YS02001895           JUNCTION     0.27     1.61     8.36     0  01:49        1.56
  YS02001898           JUNCTION     0.28     1.72     8.45     0  01:48        1.56
  YS02001901           JUNCTION     0.38     1.73     8.34     0  01:49        1.68
  YS02001904           JUNCTION     0.36     1.66     8.29     0  01:49        1.64
  YS02001907           JUNCTION     0.67     1.96     8.25     0  01:49        1.96
  YS02001910           JUNCTION     0.48     1.95     8.46     0  01:50        1.81
  YS02001915           JUNCTION     0.30     1.90     8.62     0  01:50        1.66
  YS02001918           JUNCTION     0.15     1.81     8.88     0  01:50        1.35
  YS02001920           JUNCTION     0.23     2.14     9.15     0  01:50        1.43
  YS02001923           JUNCTION     0.12     2.03     9.29     0  01:50        1.21
  YS02001926           JUNCTION     0.15     1.90     9.35     0  01:50        1.02
  YS02001929           JUNCTION     0.08     1.78     9.47     0  01:50        0.78
  YS02006553           JUNCTION     0.67     2.00     8.29     0  01:49        1.96
  YS02006556           JUNCTION     0.65     2.00     8.32     0  01:49        1.93
  YS02006558           JUNCTION     0.69     2.06     8.33     0  01:49        1.96
  YS02006561           JUNCTION     0.15     1.07     7.73     0  01:49        0.87
  YS02163301           JUNCTION     0.46     1.92     8.44     0  01:49        1.90
  YS02163601           JUNCTION     0.55     2.03     8.43     0  01:51        1.98
  YS02164001           JUNCTION     0.48     1.95     8.41     0  01:51        1.89
  CC-1                 OUTFALL      0.00     0.00     0.00     0  00:00        0.00
  CC-2                 OUTFALL      0.00     0.00     0.00     0  00:00        0.00
  JK-1                 OUTFALL      0.00     0.00     0.00     0  00:00        0.00
  JK-2                 OUTFALL      0.00     0.00     0.00     0  00:00        0.00
  WSC                  OUTFALL      0.16     0.30     0.97     0  02:41        0.30
  CC-storage           STORAGE      0.73     1.33     6.83     0  02:25        1.33
  JK-storage           STORAGE      1.45     4.22     5.02     0  01:49        4.20
  
  
  *******************
  Node Inflow Summary
  *******************
  
  -------------------------------------------------------------------------------------------------
                                  Maximum  Maximum                  Lateral       Total        Flow
                                  Lateral    Total  Time of Max      Inflow      Inflow     Balance
                                   Inflow   Inflow   Occurrence      Volume      Volume       Error
  Node                 Type           LPS      LPS  days hr:min    10^6 ltr    10^6 ltr     Percent
  -------------------------------------------------------------------------------------------------
  WS02003060           JUNCTION     16.53   550.89     0  02:39       0.476        3.81       0.067
  WS02003066           JUNCTION      0.00   534.26     0  02:39           0        3.33       0.043
  WS02003067           JUNCTION      0.00   534.22     0  02:39           0        3.34       0.127
  WS02003069           JUNCTION      0.32   551.17     0  02:39     0.00922        3.81       0.106
  WS02003072           JUNCTION      0.00   550.96     0  02:40           0        3.81       0.186
  WS02003073           JUNCTION      1.82   552.60     0  02:40      0.0524        3.85       0.153
  WS02004401           JUNCTION      0.00  1677.78     0  00:00           0        3.45       0.335
  WS02004402           JUNCTION      0.00  1171.33     0  00:01           0        3.43       0.329
  WS02004403           JUNCTION      0.00   884.75     0  00:01           0        3.42       0.320
  WS02004404           JUNCTION      0.16   832.59     0  00:01     0.00467        3.41       0.272
  WS02004405           JUNCTION      0.04   776.49     0  00:01      0.0011        3.41       0.366
  WS02004406           JUNCTION      0.00   711.76     0  00:02           0        3.39       0.647
  WS02004407           JUNCTION      0.00   535.74     0  02:37           0        3.37       0.035
  WS02004409           JUNCTION      0.00   535.66     0  02:37           0        3.37       0.083
  WS02004410           JUNCTION      0.00   535.17     0  02:37           0        3.37       0.136
  WS02004411           JUNCTION      0.00   534.80     0  02:38           0        3.36       0.175
  WS02004412           JUNCTION      0.00   534.56     0  02:38           0        3.36       0.226
  WS02004413           JUNCTION      0.00   534.40     0  02:38           0        3.35       0.411
  WS02006109           JUNCTION      1.23  1308.01     0  00:00      0.0354        3.38       0.265
  WS02006110           JUNCTION      0.00   557.60     0  03:01           0        3.35      -1.073
  WS02006111           JUNCTION      0.00  1176.04     0  00:00           0        3.38      -1.140
  WS02006112           JUNCTION      0.00  2307.30     0  00:00           0        3.42      -0.003
  WS02006113           JUNCTION      0.00   565.55     0  03:01           0        3.34      -1.465
  WS02006115           JUNCTION      0.00   899.27     0  00:00           0        3.39      -0.943
  WS02006116           JUNCTION      0.00  1098.16     0  00:01           0        3.42      -0.671
  WS02006228           JUNCTION      0.00   552.44     0  03:01           0        3.32       0.147
  WS02006229           JUNCTION      0.00   551.49     0  03:01           0        3.31       0.249
  WS02006230           JUNCTION     10.28   587.74     0  02:25       0.296        3.29       0.023
  WS02006231           JUNCTION      0.00   571.79     0  02:25           0        2.99       0.005
  WS02006232           JUNCTION      0.00   571.11     0  02:25           0        2.99       0.265
  WS02006234           JUNCTION      0.00   566.44     0  02:25           0        2.98      -0.470
  WS02006235           JUNCTION      0.00   559.59     0  02:25           0         3.1       0.556
  WS02006238           JUNCTION      0.00   425.74     0  02:15           0        2.48      -0.336
  WS02006239           JUNCTION      0.00   423.74     0  02:15           0        2.41      -0.154
  WS02006240           JUNCTION      0.00   420.47     0  02:15           0        2.37      -0.035
  WS02006242           JUNCTION      0.00   420.56     0  02:15           0        2.35       0.075
  WS02006243           JUNCTION      0.00   420.79     0  02:15           0        2.33      -0.377
  WS02006245           JUNCTION      0.00   420.61     0  02:15           0        2.34       0.469
  WS02006247           JUNCTION      0.00   420.79     0  02:15           0        2.34      -0.041
  WS02006248           JUNCTION      0.00   420.60     0  02:15           0        2.33      -0.120
  WS02006249           JUNCTION      0.00   422.14     0  02:02           0        2.46       0.612
  WS02006251           JUNCTION      0.08   405.54     0  02:02     0.00222        2.46       0.063
  WS02006252           JUNCTION      0.00   400.00     0  00:15           0        2.44      -0.628
  WS02006256           JUNCTION      0.00   300.00     0  00:05           0        0.89      -3.311
  WSF200               JUNCTION      0.00   534.29     0  02:39           0        3.33       0.015
  YS02001580           JUNCTION      0.00   201.47     0  01:47           0      0.0047       3.076
  YS02001583           JUNCTION      0.00   251.00     0  01:48           0      0.0145     -13.263
  YS02001586           JUNCTION    449.06   449.06     0  01:53        1.04        1.05       0.168
  YS02001590           JUNCTION      0.00   318.14     0  01:57           0       0.956      -0.053
  YS02001593           JUNCTION      0.00   318.02     0  01:55           0       0.957      -0.004
  YS02001596           JUNCTION      0.00   318.01     0  01:55           0       0.957      -0.005
  YS02001600           JUNCTION      0.00   317.96     0  01:55           0       0.957       0.004
  YS02001601           JUNCTION    817.96  1135.15     0  01:51         1.4        2.36       0.027
  YS02001602           JUNCTION      0.00   577.25     0  01:47           0        1.75       0.014
  YS02001605           JUNCTION      0.00   576.83     0  01:47           0        1.69       0.008
  YS02001607           JUNCTION      0.00   576.69     0  01:47           0        1.69       0.112
  YS02001610           JUNCTION      0.00   536.99     0  01:47           0        1.69       0.126
  YS02001613           JUNCTION      0.00   501.80     0  01:47           0        1.52       0.104
  YS02001616           JUNCTION      0.00   495.67     0  01:47           0        1.52       0.007
  YS02001619           JUNCTION    774.98   985.35     0  01:47         1.6        3.11      -0.010
  YS02001622           JUNCTION      0.00   930.38     0  01:48           0        3.11      -0.018
  YS02001625           JUNCTION      0.00   930.28     0  01:48           0        3.11       0.280
  YS02001629           JUNCTION      0.00   910.98     0  01:48           0        2.86       0.010
  YS02001633           JUNCTION    625.53  1432.55     0  01:49        1.05        3.91       0.086
  YS02001641           JUNCTION      0.00  1430.00     0  01:49           0        3.91       0.072
  YS02001644           JUNCTION    540.70  1917.16     0  01:49       0.864        4.77       0.067
  YS02001647           JUNCTION      0.00  1916.21     0  01:49           0        4.76       0.009
  YS02001649           JUNCTION      0.00  2210.50     0  01:50           0        5.58       0.006
  YS02001652           JUNCTION      0.00   636.14     0  01:53           0       0.824      -0.183
  YS02001655           JUNCTION      0.15   664.60     0  01:50     0.00443       0.824       0.099
  YS02001658           JUNCTION      0.00   654.87     0  01:55           0       0.819      -0.087
  YS02001661           JUNCTION      0.00   545.80     0  01:51           0        0.82       0.043
  YS02001664           JUNCTION    541.63   541.63     0  01:50        0.82        0.82      -0.009
  YS02001745           JUNCTION    345.19   345.19     0  01:50       0.473       0.473       0.305
  YS02001748           JUNCTION      0.04   561.25     0  01:52      0.0013       0.475      -0.403
  YS02001751           JUNCTION      0.01   486.21     0  01:54    0.000317       0.483       0.089
  YS02001754           JUNCTION      0.26   417.93     0  01:52     0.00749       0.495      -0.314
  YS02001757           JUNCTION      0.00  3301.79     0  01:52           0         7.8       0.073
  YS02001759           JUNCTION    498.20  1238.80     0  01:50       0.691        1.72      -0.018
  YS02001762           JUNCTION      0.00   737.57     0  01:50           0        1.03       0.002
  YS02001765           JUNCTION      0.00   728.69     0  01:50           0        1.03       0.018
  YS02001767           JUNCTION      0.54   721.24     0  01:50      0.0154        1.03      -0.019
  YS02001770           JUNCTION    677.71   702.34     0  01:50        1.02        1.06      -0.005
  YS02001774           JUNCTION      0.00   408.83     0  01:50           0      0.0618       1.634
  YS02001779           JUNCTION      0.01   400.26     0  01:50    0.000144      0.0201      -5.439
  YS02001783           JUNCTION      0.00  1150.75     0  01:50           0        2.83       0.004
  YS02001784           JUNCTION      1.06  1152.46     0  01:50      0.0305        2.86       0.018
  YS02001786           JUNCTION      0.06  1152.10     0  01:50     0.00162        2.86       0.020
  YS02001788           JUNCTION      0.07  1156.72     0  01:49     0.00204        2.86       0.010
  YS02001790           JUNCTION      0.15  1160.77     0  01:52     0.00446        2.87       0.028
  YS02001791           JUNCTION      0.00  1285.75     0  01:50           0        2.87      -0.019
  YS02001793           JUNCTION      0.00  1243.57     0  01:51           0        2.87       0.008
  YS02001882           JUNCTION      0.00    75.84     0  01:48           0      0.0124       3.273
  YS02001884           JUNCTION      0.00   144.53     0  01:48           0      0.0481       4.834
  YS02001887           JUNCTION    543.20   573.29     0  01:48       0.721       0.754       0.575
  YS02001890           JUNCTION      0.00   587.15     0  01:48           0       0.714       0.679
  YS02001895           JUNCTION      0.00   592.39     0  01:48           0       0.706       0.222
  YS02001898           JUNCTION      0.00   582.11     0  01:49           0       0.705       0.058
  YS02001901           JUNCTION      0.00   589.53     0  01:49           0       0.707       0.435
  YS02001904           JUNCTION      0.00   592.18     0  01:49           0       0.713       0.394
  YS02001907           JUNCTION      0.00  1523.45     0  01:51           0        2.17       0.827
  YS02001910           JUNCTION      0.00  1007.39     0  01:51           0        1.46       0.489
  YS02001915           JUNCTION    552.67  1006.79     0  01:51       0.881        1.51       0.071
  YS02001918           JUNCTION      0.00   646.07     0  01:49           0       0.662       0.011
  YS02001920           JUNCTION      2.87   567.51     0  01:49      0.0827       0.638       0.146
  YS02001923           JUNCTION      0.04   766.79     0  01:49     0.00109       0.537      -0.250
  YS02001926           JUNCTION      0.05  1019.65     0  01:49      0.0015       0.518      -0.133
  YS02001929           JUNCTION    278.42   861.05     0  01:50       0.496       0.501      -0.454
  YS02006553           JUNCTION      0.00   788.67     0  02:01           0        1.88       0.609
  YS02006556           JUNCTION      0.00   788.81     0  02:02           0        1.89       0.410
  YS02006558           JUNCTION    676.21  1172.36     0  01:49       0.997        2.86       0.122
  YS02006561           JUNCTION      0.00  1177.50     0  01:48           0        2.83      -0.005
  YS02163301           JUNCTION      0.00   882.47     0  01:48           0        2.86       0.051
  YS02163601           JUNCTION      0.11  1431.97     0  01:49     0.00317        3.91       0.123
  YS02164001           JUNCTION      0.00  1431.06     0  01:49           0        3.91       0.061
  CC-1                 OUTFALL       0.00   683.00     0  00:10           0        3.58       0.000
  CC-2                 OUTFALL       0.00   683.00     0  00:05           0        2.63       0.000
  JK-1                 OUTFALL       0.00  1000.00     0  00:05           0        1.26       0.000
  JK-2                 OUTFALL       0.00  1000.00     0  00:05           0       0.847       0.000
  WSC                  OUTFALL       0.00   552.27     0  02:41           0        3.85       0.000
  CC-storage           STORAGE       0.00  3302.14     0  01:52           0          10      -0.301
  JK-storage           STORAGE       0.00  1274.92     0  01:54           0        3.02      -0.555
  
  
  **********************
  Node Surcharge Summary
  **********************
  
  Surcharging occurs when water rises above the top of the highest conduit.
  ---------------------------------------------------------------------
                                               Max. Height   Min. Depth
                                   Hours       Above Crown    Below Rim
  Node                 Type      Surcharged         Meters       Meters
  ---------------------------------------------------------------------
  WS02006109           JUNCTION        1.10          0.295        1.525
  WS02006110           JUNCTION        0.39          0.120        1.730
  WS02006111           JUNCTION        0.01          0.087        1.783
  WS02006112           JUNCTION        0.34          1.680        0.000
  WS02006113           JUNCTION        0.01          0.600        1.330
  WS02006115           JUNCTION        0.01          0.642        1.608
  WS02006116           JUNCTION        0.01          0.000        2.290
  WS02006228           JUNCTION        1.09          0.318        1.882
  WS02006229           JUNCTION        1.11          0.296        2.154
  WS02006230           JUNCTION        0.38          0.163        1.407
  WS02006231           JUNCTION        0.43          0.470        1.060
  WS02006232           JUNCTION        1.13          1.044        0.436
  WS02006234           JUNCTION        0.63          1.090        0.150
  WS02006235           JUNCTION        1.09          0.636        0.654
  WS02006238           JUNCTION        1.10          0.641        0.789
  WS02006239           JUNCTION        1.09          0.853        0.437
  WS02006240           JUNCTION        1.09          1.381        0.009
  WS02006242           JUNCTION        1.14          0.693        0.127
  WS02006243           JUNCTION        1.08          0.770        0.000
  WS02006245           JUNCTION        1.06          0.498        0.352
  WS02006247           JUNCTION        1.06          0.486        0.274
  WS02006248           JUNCTION        1.06          0.380        0.000
  WS02006249           JUNCTION        1.06          0.390        0.000
  WS02006251           JUNCTION        0.46          0.297        0.883
  WS02006252           JUNCTION        1.42          1.100        0.000
  WS02006256           JUNCTION        6.60          2.050        0.000
  YS02001580           JUNCTION        0.35          0.450        0.000
  YS02001583           JUNCTION        0.36          0.500        0.000
  YS02001586           JUNCTION        0.47          0.510        0.000
  YS02001590           JUNCTION        0.53          0.750        0.000
  YS02001593           JUNCTION        0.53          0.840        0.000
  YS02001596           JUNCTION        0.61          1.070        0.000
  YS02001600           JUNCTION        0.72          1.190        0.000
  YS02001601           JUNCTION        1.06          1.440        0.000
  YS02001602           JUNCTION        0.94          1.270        0.000
  YS02001605           JUNCTION        0.89          1.180        0.000
  YS02001607           JUNCTION        0.47          0.680        0.000
  YS02001610           JUNCTION        0.49          0.680        0.000
  YS02001613           JUNCTION        0.47          0.700        0.000
  YS02001616           JUNCTION        0.43          0.610        0.000
  YS02001619           JUNCTION        0.43          0.610        0.000
  YS02001622           JUNCTION        0.42          0.620        0.000
  YS02001625           JUNCTION        0.57          0.780        0.000
  YS02001629           JUNCTION        0.37          0.470        0.000
  YS02001633           JUNCTION        0.58          1.007        0.053
  YS02001641           JUNCTION        0.50          0.952        0.148
  YS02001644           JUNCTION        0.47          0.920        0.000
  YS02001647           JUNCTION        0.30          0.734        0.166
  YS02001649           JUNCTION        0.37          0.898        0.152
  YS02001652           JUNCTION        0.21          0.781        0.349
  YS02001655           JUNCTION        0.09          0.747        0.453
  YS02001658           JUNCTION        0.02          0.682        0.618
  YS02001751           JUNCTION        0.04          0.745        0.455
  YS02001754           JUNCTION        0.11          0.750        0.400
  YS02001757           JUNCTION        0.39          0.811        0.399
  YS02001759           JUNCTION        0.32          0.744        0.466
  YS02001762           JUNCTION        0.29          0.795        0.355
  YS02001765           JUNCTION        0.26          0.926        0.174
  YS02001767           JUNCTION        0.23          0.922        0.108
  YS02001770           JUNCTION        0.20          0.870        0.050
  YS02001774           JUNCTION        0.28          0.992        0.058
  YS02001779           JUNCTION        0.12          0.680        0.000
  YS02001783           JUNCTION        0.34          0.537        1.063
  YS02001784           JUNCTION        0.31          0.393        1.097
  YS02001786           JUNCTION        0.23          0.155        1.275
  YS02001882           JUNCTION        0.29          0.830        0.000
  YS02001884           JUNCTION        0.30          0.870        0.000
  YS02001887           JUNCTION        0.32          0.832        0.118
  YS02001890           JUNCTION        0.34          0.760        0.000
  YS02001895           JUNCTION        0.28          0.614        0.136
  YS02001898           JUNCTION        0.27          0.687        0.053
  YS02001901           JUNCTION        0.31          0.730        0.140
  YS02001904           JUNCTION        0.31          0.664        0.186
  YS02001907           JUNCTION        0.48          0.950        0.000
  YS02001910           JUNCTION        0.35          0.954        0.146
  YS02001915           JUNCTION        0.29          0.902        0.098
  YS02001918           JUNCTION        0.22          0.810        0.000
  YS02001920           JUNCTION        0.23          1.140        0.000
  YS02001923           JUNCTION        0.01          0.820        0.000
  YS02001926           JUNCTION        0.02          0.900        0.000
  YS02001929           JUNCTION        0.01          0.780        0.000
  YS02006553           JUNCTION        0.50          1.004        0.186
  YS02006556           JUNCTION        0.42          0.964        0.386
  YS02006558           JUNCTION        0.41          0.959        0.441
  YS02006561           JUNCTION        0.18          0.269        0.881
  YS02163301           JUNCTION        0.56          0.923        0.107
  YS02163601           JUNCTION        0.60          1.033        0.047
  YS02164001           JUNCTION        0.51          0.954        0.146
  
  
  *********************
  Node Flooding Summary
  *********************
  
  Flooding refers to all water that overflows a node, whether it ponds or not.
  --------------------------------------------------------------------------
                                                             Total   Maximum
                                 Maximum   Time of Max       Flood    Ponded
                        Hours       Rate    Occurrence      Volume     Depth
  Node                 Flooded       LPS   days hr:min    10^6 ltr    Meters
  --------------------------------------------------------------------------
  WS02006112              0.01   1547.89      0  00:00       0.047     0.000
  WS02006243              0.01     46.86      0  03:20       0.000     0.000
  WS02006248              0.01      1.35      0  03:01       0.000     0.000
  WS02006249              0.44     86.73      0  03:01       0.108     0.000
  WS02006252              0.01      0.91      0  01:55       0.000     0.000
  WS02006256              0.82    285.62      0  04:45       0.259     0.000
  YS02001580              0.01    113.04      0  01:47       0.001     0.000
  YS02001583              0.01    153.50      0  01:48       0.000     0.000
  YS02001586              0.26    158.92      0  01:48       0.079     0.000
  YS02001590              0.01     19.75      0  01:47       0.000     0.000
  YS02001593              0.01     16.05      0  01:46       0.000     0.000
  YS02001596              0.01     17.57      0  01:46       0.000     0.000
  YS02001600              0.01     15.52      0  01:46       0.000     0.000
  YS02001601              0.40    737.30      0  01:51       0.608     0.000
  YS02001602              0.29     62.02      0  01:55       0.059     0.000
  YS02001605              0.01      2.61      0  01:47       0.000     0.000
  YS02001607              0.01     15.88      0  01:47       0.000     0.000
  YS02001610              0.25    278.36      0  01:53       0.168     0.000
  YS02001613              0.01     19.17      0  01:48       0.000     0.000
  YS02001616              0.01     33.97      0  01:48       0.000     0.000
  YS02001619              0.01    242.79      0  01:47       0.001     0.000
  YS02001622              0.01     55.76      0  01:47       0.000     0.000
  YS02001625              0.21    711.29      0  01:52       0.245     0.000
  YS02001629              0.03    308.46      0  01:48       0.003     0.000
  YS02001644              0.01     17.28      0  01:51       0.000     0.000
  YS02001779              0.01    365.38      0  01:50       0.004     0.000
  YS02001882              0.01     22.22      0  01:48       0.000     0.000
  YS02001884              0.01     19.34      0  01:48       0.000     0.000
  YS02001890              0.03     76.45      0  01:48       0.002     0.000
  YS02001907              0.17   1045.27      0  01:51       0.273     0.000
  YS02001918              0.01    246.40      0  01:50       0.004     0.000
  YS02001920              0.01     90.81      0  01:50       0.000     0.000
  YS02001923              0.01    203.23      0  01:50       0.001     0.000
  YS02001926              0.01    421.11      0  01:50       0.003     0.000
  YS02001929              0.01    644.57      0  01:50       0.002     0.000
  
  
  **********************
  Storage Volume Summary
  **********************
  
  ------------------------------------------------------------------------------------------------
                         Average    Avg   Evap  Exfil     Maximum    Max    Time of Max    Maximum
                          Volume   Pcnt   Pcnt   Pcnt      Volume   Pcnt     Occurrence    Outflow
  Storage Unit           1000 m³   Full   Loss   Loss     1000 m³   Full    days hr:min        LPS
  ------------------------------------------------------------------------------------------------
  CC-storage               2.022   31.5    0.0    0.0       3.701   57.7       0  02:25    1766.00
  JK-storage               0.073   25.0    0.0    0.0       0.212   72.7       0  01:49    2300.00
  
  
  ***********************
  Outfall Loading Summary
  ***********************
  
  -----------------------------------------------------------
                         Flow       Avg       Max       Total
                         Freq      Flow      Flow      Volume
  Outfall Node           Pcnt       LPS       LPS    10^6 ltr
  -----------------------------------------------------------
  CC-1                  38.82    683.00    683.00       3.579
  CC-2                  27.44    683.00    683.00       2.634
  JK-1                   7.22   1000.00   1000.00       1.263
  JK-2                   6.55   1000.00   1000.00       0.847
  WSC                   99.99    199.96    552.27       3.848
  -----------------------------------------------------------
  System                36.00   3565.96   3846.97      12.170
  
  
  ********************
  Link Flow Summary
  ********************
  
  -----------------------------------------------------------------------------
                                 Maximum  Time of Max   Maximum    Max/    Max/
                                  |Flow|   Occurrence   |Veloc|    Full    Full
  Link                 Type          LPS  days hr:min     m/sec    Flow   Depth
  -----------------------------------------------------------------------------
  1                    CONDUIT    552.27     0  02:41      2.82    0.19    0.30
  WS02003060WS02003069 CONDUIT    550.85     0  02:39      1.64    0.22    0.34
  WS02003066WSF200     CONDUIT    534.29     0  02:39      2.85    0.09    0.22
  WS02003067WS02003066 CONDUIT    534.26     0  02:39      1.20    0.17    0.41
  WS02003069WS02003072 CONDUIT    550.96     0  02:40      1.37    0.27    0.39
  WS02003072WS02003073 CONDUIT    550.78     0  02:40      1.43    1.19    0.37
  WS02004401WS02004402 CONDUIT   1171.33     0  00:01      2.51    1.41    0.86
  WS02004402WS02004403 CONDUIT    884.75     0  00:01      2.16    1.27    0.88
  WS02004403WS02004404 CONDUIT    832.43     0  00:01      1.96    0.60    0.93
  WS02004404WS02004405 CONDUIT    776.45     0  00:01      2.26    7.61    0.96
  WS02004405WS02004406 CONDUIT    711.76     0  00:02      2.15    1.40    0.95
  WS02004406WS02004407 CONDUIT    535.74     0  02:37      1.04    0.24    0.63
  WS02004407WS02004409 CONDUIT    535.66     0  02:37      1.95    0.19    0.48
  WS02004409WS02004410 CONDUIT    535.17     0  02:37      1.31    0.69    0.67
  WS02004410WS02004411 CONDUIT    534.80     0  02:38      1.19    0.73    0.68
  WS02004411WS02004412 CONDUIT    534.56     0  02:38      1.08    0.76    0.69
  WS02004412WS02004413 CONDUIT    534.40     0  02:38      1.10    0.36    0.78
  WS02004413WS02003067 CONDUIT    534.22     0  02:39      1.11    0.23    0.59
  WS02006109WS02006110 CONDUIT   1306.78     0  00:00      3.14    2.51    1.00
  WS02006110WS02006113 CONDUIT    565.55     0  03:01      1.36    0.51    1.00
  WS02006111WS02006112 CONDUIT   2307.30     0  00:00      9.18    1.10    0.91
  WS02006112WS02006115 CONDUIT    899.27     0  00:00      1.16    0.53    1.00
  WS02006113WS02006111 CONDUIT   1176.04     0  00:00      2.47    1.41    1.00
  WS02006115WS02006116 CONDUIT   1098.16     0  00:01      1.72    1.41    1.00
  WS02006116WS02004401 CONDUIT   1677.78     0  00:00      2.92    2.31    0.84
  WS02006228WS02006109 CONDUIT    555.15     0  03:01      1.40    2.43    1.00
  WS02006229WS02006228 CONDUIT    552.44     0  03:01      1.24    1.83    1.00
  WS02006230WS02006229 CONDUIT    551.49     0  03:01      1.43   12.27    1.00
  WS02006231WS02006230 CONDUIT    577.46     0  02:25      1.56    8.76    1.00
  WS02006232WS02006231 CONDUIT    571.79     0  02:25      1.49    1.20    1.00
  WS02006234WS02006232 CONDUIT    571.11     0  02:25      1.48    1.16    1.00
  WS02006235WS02006234 CONDUIT    566.44     0  02:25      1.47    5.98    1.00
  WS02006238WS02006235 CONDUIT    425.78     0  02:15      1.45    0.95    1.00
  WS02006239WS02006238 CONDUIT    425.74     0  02:15      1.11    1.36    1.00
  WS02006240WS02006239 CONDUIT    423.74     0  02:15      1.16    1.33    1.00
  WS02006242WS02006240 CONDUIT    420.47     0  02:15      1.10    1.67    1.00
  WS02006243WS02006242 CONDUIT    420.56     0  02:15      1.21    0.90    1.00
  WS02006245WS02006243 CONDUIT    420.79     0  02:15      1.36    1.24    1.00
  WS02006247WS02006245 CONDUIT    420.61     0  02:15      1.28    3.34    1.00
  WS02006248WS02006247 CONDUIT    420.79     0  02:15      1.31    0.92    1.00
  WS02006249WS02006248 CONDUIT    420.60     0  02:15      1.33    2.30    1.00
  WS02006251WS02006249 CONDUIT    422.14     0  02:02      2.05    1.22    1.00
  WS02006252WS02006251 CONDUIT    405.46     0  02:02     17.92    1.49    1.00
  WS02006256WS02006235 CONDUIT    288.77     0  00:05      4.22    3.06    1.00
  WSF200WS02003060     CONDUIT    534.36     0  02:39      2.06    0.12    0.28
  YS02001580YS02001583 CONDUIT    201.47     0  01:47      0.94    0.78    1.00
  YS02001583YS02001586 CONDUIT    218.24     0  01:47      1.00    0.33    1.00
  YS02001586YS02001590 CONDUIT    318.14     0  01:57      1.29    0.56    1.00
  YS02001590YS02001593 CONDUIT    318.02     0  01:55      1.12    2.00    1.00
  YS02001593YS02001596 CONDUIT    318.01     0  01:55      1.74    0.50    1.00
  YS02001596YS02001600 CONDUIT    317.96     0  01:55      1.20    0.62    1.00
  YS02001600YS02001601 CONDUIT    317.97     0  01:56      1.12    0.55    1.00
  YS02001601YS02001602 CONDUIT    577.25     0  01:47      2.04    2.09    1.00
  YS02001602YS02001605 CONDUIT    576.83     0  01:47      2.04   12.21    1.00
  YS02001605YS02001607 CONDUIT    576.69     0  01:47      2.04    3.16    1.00
  YS02001607YS02001610 CONDUIT    536.99     0  01:47      0.71    0.51    1.00
  YS02001610YS02001613 CONDUIT    501.80     0  01:47      0.67    0.58    1.00
  YS02001613YS02001616 CONDUIT    495.67     0  01:47      0.65    0.42    1.00
  YS02001616YS02001619 CONDUIT    497.54     0  02:14      0.67    0.86    1.00
  YS02001619YS02001622 CONDUIT    930.38     0  01:48      1.28    1.37    1.00
  YS02001622YS02001625 CONDUIT    930.28     0  01:48      1.18    0.50    1.00
  YS02001625YS02001629 CONDUIT    910.98     0  01:48      1.16    0.43    1.00
  YS02001629YS02163301 CONDUIT    882.47     0  01:48      1.12    1.09    1.00
  YS02001633YS02163601 CONDUIT   1431.86     0  01:49      1.82    1.50    1.00
  YS02001641YS02001644 CONDUIT   1429.62     0  01:49      1.82    4.62    1.00
  YS02001644YS02001647 CONDUIT   1916.21     0  01:49      2.45    1.13    1.00
  YS02001647YS02001649 CONDUIT   1918.07     0  01:49      2.44    1.01    1.00
  YS02001649YS02001757 CONDUIT   2210.06     0  01:49      2.81    1.34    1.00
  YS02001652YS02001649 CONDUIT    636.45     0  01:53      0.83    0.32    1.00
  YS02001655YS02001652 CONDUIT    636.14     0  01:53      1.48    0.31    1.00
  YS02001658YS02001655 CONDUIT    664.44     0  01:50      2.07    0.28    1.00
  YS02001661YS02001658 CONDUIT    654.87     0  01:55      2.45    0.26    0.88
  YS02001664YS02001661 CONDUIT    545.80     0  01:51      2.37    0.17    0.55
  YS02001745YS02001748 CONDUIT    561.20     0  01:52      2.30    0.22    0.67
  YS02001748YS02001751 CONDUIT    486.20     0  01:54      1.88    0.25    1.00
  YS02001751YS02001754 CONDUIT    417.67     0  01:52      1.56    0.20    1.00
  YS02001754YS02001757 CONDUIT    417.45     0  01:52      0.54    0.17    1.00
  YS02001757CaochengTiaoxuchi CONDUIT   3302.14     0  01:52      4.40    1.43    1.00
  YS02001759YS02001757 CONDUIT   1244.83     0  01:50      1.58    0.88    1.00
  YS02001762YS02001759 CONDUIT    745.75     0  01:50      0.95    0.86    1.00
  YS02001765YS02001762 CONDUIT    737.57     0  01:50      0.94    0.69    1.00
  YS02001767YS02001765 CONDUIT    728.69     0  01:50      0.93    0.92    1.00
  YS02001770YS02001767 CONDUIT    720.70     0  01:50      0.92    2.85    1.00
  YS02001774YS02001770 CONDUIT    408.83     0  01:50      0.52    0.26    1.00
  YS02001779YS02001774 CONDUIT    400.26     0  01:50      0.52    0.20    1.00
  YS02001783YS02001784 CONDUIT   1151.40     0  01:50      2.29    1.59    1.00
  YS02001784YS02001785 CONDUIT   1152.05     0  01:50      2.29    2.68    1.00
  YS02001786YS02001788 CONDUIT   1156.65     0  01:49      2.49    2.23    0.89
  YS02001788YS02001790 CONDUIT   1160.62     0  01:52      2.70    0.86    0.84
  YS02001790YS02001791 CONDUIT   1285.75     0  01:50      3.43    1.40    0.70
  YS02001791YS02001793 CONDUIT   1243.57     0  01:51      6.64    0.53    0.42
  YS02001793JiankangQianchi CONDUIT   1274.92     0  01:54      2.55    0.10    0.63
  YS02001882YS02001884 CONDUIT     75.84     0  01:48      0.12    0.09    1.00
  YS02001884YS02001887 CONDUIT    144.53     0  01:48      0.18    0.19    1.00
  YS02001887YS02001890 CONDUIT    587.15     0  01:48      0.75    1.00    1.00
  YS02001890YS02001895 CONDUIT    592.39     0  01:48      0.76    0.28    1.00
  YS02001895YS02001898 CONDUIT    582.11     0  01:49      0.74    1.01    1.00
  YS02001898YS02001901 CONDUIT    589.53     0  01:49      0.75    0.38    1.00
  YS02001901YS02001904 CONDUIT    592.18     0  01:49      0.75    0.92    1.00
  YS02001904YS02001907 CONDUIT    594.77     0  01:49      0.76    0.21    1.00
  YS02001907YS02006553 CONDUIT    788.67     0  02:01      0.88    0.93    1.00
  YS02001910YS02001907 CONDUIT   1007.84     0  01:51      1.28    0.57    1.00
  YS02001915YS02001910 CONDUIT   1007.39     0  01:51      1.28    0.50    1.00
  YS02001918YS02001915 CONDUIT    646.07     0  01:49      0.85    0.36    1.00
  YS02001920YS02001918 CONDUIT    564.64     0  01:49      0.72    0.55    1.00
  YS02001923YS02001920 CONDUIT    578.28     0  01:49      0.79    0.26    1.00
  YS02001926YS02001923 CONDUIT    777.02     0  01:49      1.22    1.11    1.00
  YS02001929YS02001926 CONDUIT    596.31     0  01:50      1.21    0.28    1.00
  YS02006553YS02006556 CONDUIT    788.81     0  02:02      1.00    0.67    1.00
  YS02006556YS02006558 CONDUIT    789.75     0  02:02      1.01    0.62    1.00
  YS02006558YS02006561 CONDUIT   1177.50     0  01:48      4.17    2.60    1.00
  YS02006561YS02001783 CONDUIT   1150.75     0  01:50      2.29    0.60    1.00
  YS02163301YS02001633 CONDUIT    881.67     0  01:48      1.12    0.83    1.00
  YS02163601YS02164001 CONDUIT   1431.06     0  01:49      1.82    1.27    1.00
  YS02164001YS02001641 CONDUIT   1430.00     0  01:49      1.82    1.95    1.00
  CC-R1                PUMP       683.00     0  00:10              1.00
  CC-R2                PUMP       683.00     0  00:05              1.00
  CC-S1                PUMP       200.00     0  00:10              1.00
  CC-S2                PUMP       200.00     0  00:15              1.00
  JK-R1                PUMP      1000.00     0  00:05              1.00
  JK-R2                PUMP      1000.00     0  00:05              1.00
  JK-S                 PUMP       300.00     0  00:05              1.00
  
  
  ***************************
  Flow Classification Summary
  ***************************
  
  -------------------------------------------------------------------------------------
                      Adjusted    ---------- Fraction of Time in Flow Class ---------- 
                       /Actual         Up    Down  Sub   Sup   Up    Down  Norm  Inlet 
  Conduit               Length    Dry  Dry   Dry   Crit  Crit  Crit  Crit  Ltd   Ctrl  
  -------------------------------------------------------------------------------------
  1                       1.00   0.00  0.00  0.00  0.00  1.00  0.00  0.00  0.29  0.00
  WS02003060WS02003069    1.00   0.00  0.00  0.00  0.97  0.03  0.00  0.00  0.78  0.00
  WS02003066WSF200        1.00   0.03  0.00  0.00  0.00  0.97  0.00  0.00  0.91  0.00
  WS02003067WS02003066    1.00   0.02  0.01  0.00  0.97  0.00  0.00  0.00  0.00  0.00
  WS02003069WS02003072    1.00   0.00  0.00  0.00  0.99  0.01  0.00  0.00  0.84  0.00
  WS02003072WS02003073    1.00   0.00  0.00  0.00  0.00  0.00  0.00  1.00  0.00  0.00
  WS02004401WS02004402    1.00   0.00  0.00  0.00  1.00  0.00  0.00  0.00  0.00  0.00
  WS02004402WS02004403    1.00   0.00  0.00  0.00  1.00  0.00  0.00  0.00  0.00  0.00
  WS02004403WS02004404    1.00   0.00  0.00  0.00  1.00  0.00  0.00  0.00  0.00  0.00
  WS02004404WS02004405    1.00   0.00  0.00  0.00  1.00  0.00  0.00  0.00  0.01  0.00
  WS02004405WS02004406    1.00   0.00  0.00  0.00  1.00  0.00  0.00  0.00  0.00  0.00
  WS02004406WS02004407    1.00   0.00  0.00  0.00  1.00  0.00  0.00  0.00  0.00  0.00
  WS02004407WS02004409    1.00   0.00  0.00  0.00  0.99  0.00  0.00  0.00  0.99  0.00
  WS02004409WS02004410    1.00   0.00  0.00  0.00  0.99  0.00  0.00  0.00  0.00  0.00
  WS02004410WS02004411    1.00   0.01  0.00  0.00  0.99  0.00  0.00  0.00  0.00  0.00
  WS02004411WS02004412    1.00   0.01  0.00  0.00  0.99  0.00  0.00  0.00  0.00  0.00
  WS02004412WS02004413    1.00   0.01  0.00  0.00  0.99  0.00  0.00  0.00  0.00  0.00
  WS02004413WS02003067    1.00   0.01  0.01  0.00  0.00  0.00  0.98  0.00  0.00  0.00
  WS02006109WS02006110    1.00   0.00  0.00  0.00  1.00  0.00  0.00  0.00  0.00  0.00
  WS02006110WS02006113    1.00   0.00  0.00  0.00  1.00  0.00  0.00  0.00  0.00  0.00
  WS02006111WS02006112    1.00   0.00  0.00  0.00  1.00  0.00  0.00  0.00  1.00  0.00
  WS02006112WS02006115    1.00   0.00  0.00  0.00  1.00  0.00  0.00  0.00  0.00  0.00
  WS02006113WS02006111    1.00   0.00  0.00  0.00  0.01  0.99  0.00  0.00  0.10  0.00
  WS02006115WS02006116    1.00   0.00  0.00  0.00  1.00  0.00  0.00  0.00  0.00  0.00
  WS02006116WS02004401    1.00   0.00  0.00  0.00  1.00  0.00  0.00  0.00  0.00  0.00
  WS02006228WS02006109    1.00   0.00  0.00  0.00  1.00  0.00  0.00  0.00  0.00  0.00
  WS02006229WS02006228    1.00   0.00  0.00  0.00  1.00  0.00  0.00  0.00  0.00  0.00
  WS02006230WS02006229    1.00   0.00  0.00  0.00  1.00  0.00  0.00  0.00  0.04  0.00
  WS02006231WS02006230    1.00   0.00  0.00  0.00  0.17  0.00  0.83  0.00  0.00  0.00
  WS02006232WS02006231    1.00   0.00  0.00  0.00  0.98  0.00  0.01  0.00  0.00  0.00
  WS02006234WS02006232    1.00   0.00  0.00  0.00  0.99  0.00  0.00  0.00  0.05  0.00
  WS02006235WS02006234    1.00   0.01  0.00  0.00  0.89  0.00  0.10  0.00  0.00  0.00
  WS02006238WS02006235    1.00   0.01  0.00  0.00  0.99  0.00  0.00  0.00  0.00  0.00
  WS02006239WS02006238    1.00   0.01  0.00  0.00  0.99  0.00  0.00  0.00  0.19  0.00
  WS02006240WS02006239    1.00   0.01  0.00  0.00  0.57  0.00  0.00  0.42  0.06  0.00
  WS02006242WS02006240    1.00   0.01  0.00  0.00  0.98  0.00  0.01  0.00  0.00  0.00
  WS02006243WS02006242    1.00   0.02  0.01  0.00  0.97  0.00  0.00  0.01  0.68  0.00
  WS02006245WS02006243    1.00   0.02  0.00  0.00  0.71  0.00  0.00  0.27  0.01  0.00
  WS02006247WS02006245    1.00   0.02  0.00  0.00  0.94  0.00  0.00  0.04  0.00  0.00
  WS02006248WS02006247    1.00   0.02  0.00  0.00  0.96  0.00  0.00  0.02  0.57  0.00
  WS02006249WS02006248    1.00   0.00  0.02  0.00  0.32  0.00  0.66  0.00  0.00  0.00
  WS02006251WS02006249    1.00   0.00  0.00  0.00  0.99  0.01  0.00  0.00  0.65  0.00
  WS02006252WS02006251    1.00   0.04  0.60  0.00  0.06  0.00  0.30  0.00  0.00  0.00
  WS02006256WS02006235    1.00   0.01  0.00  0.00  0.96  0.02  0.00  0.00  0.01  0.00
  WSF200WS02003060        1.00   0.00  0.03  0.00  0.54  0.43  0.00  0.00  0.74  0.00
  YS02001580YS02001583    1.00   0.22  0.62  0.00  0.16  0.00  0.00  0.00  0.71  0.00
  YS02001583YS02001586    1.00   0.51  0.28  0.00  0.21  0.00  0.00  0.00  0.71  0.00
  YS02001586YS02001590    1.00   0.13  0.00  0.00  0.36  0.04  0.00  0.47  0.33  0.00
  YS02001590YS02001593    1.00   0.13  0.01  0.00  0.08  0.00  0.79  0.00  0.00  0.00
  YS02001593YS02001596    1.00   0.14  0.00  0.00  0.09  0.01  0.00  0.77  0.02  0.00
  YS02001596YS02001600    1.00   0.14  0.00  0.00  0.15  0.02  0.00  0.69  0.06  0.00
  YS02001600YS02001601    1.00   0.13  0.01  0.00  0.86  0.00  0.00  0.00  0.64  0.00
  YS02001601YS02001602    1.00   0.13  0.01  0.00  0.86  0.00  0.00  0.00  0.00  0.00
  YS02001602YS02001605    1.00   0.14  0.00  0.00  0.86  0.00  0.00  0.00  0.00  0.00
  YS02001605YS02001607    1.00   0.14  0.00  0.00  0.86  0.00  0.00  0.00  0.00  0.00
  YS02001607YS02001610    1.00   0.13  0.01  0.00  0.86  0.00  0.00  0.00  0.02  0.00
  YS02001610YS02001613    1.00   0.13  0.00  0.00  0.87  0.00  0.00  0.00  0.01  0.00
  YS02001613YS02001616    1.00   0.13  0.00  0.00  0.87  0.00  0.00  0.00  0.01  0.00
  YS02001616YS02001619    1.00   0.13  0.00  0.00  0.87  0.00  0.00  0.00  0.00  0.00
  YS02001619YS02001622    1.00   0.13  0.00  0.00  0.87  0.00  0.00  0.00  0.36  0.00
  YS02001622YS02001625    1.00   0.13  0.00  0.00  0.87  0.00  0.00  0.00  0.05  0.00
  YS02001625YS02001629    1.00   0.13  0.06  0.00  0.11  0.00  0.70  0.00  0.00  0.00
  YS02001629YS02163301    1.00   0.16  0.01  0.00  0.83  0.00  0.00  0.00  0.00  0.00
  YS02001633YS02163601    1.00   0.00  0.01  0.00  0.99  0.00  0.00  0.00  0.15  0.00
  YS02001641YS02001644    1.00   0.00  0.01  0.00  0.99  0.00  0.00  0.00  0.00  0.00
  YS02001644YS02001647    1.00   0.00  0.18  0.00  0.82  0.00  0.00  0.00  0.00  0.00
  YS02001647YS02001649    1.00   0.00  0.18  0.00  0.54  0.28  0.00  0.00  0.60  0.00
  YS02001649YS02001757    1.00   0.00  0.00  0.00  0.72  0.28  0.00  0.00  0.58  0.00
  YS02001652YS02001649    1.00   0.00  0.00  0.00  0.96  0.04  0.00  0.00  0.79  0.00
  YS02001655YS02001652    1.00   0.00  0.00  0.00  0.13  0.02  0.00  0.86  0.06  0.00
  YS02001658YS02001655    1.00   0.00  0.14  0.00  0.63  0.23  0.00  0.00  0.74  0.00
  YS02001661YS02001658    1.00   0.14  0.00  0.00  0.49  0.36  0.00  0.00  0.76  0.00
  YS02001664YS02001661    1.00   0.13  0.00  0.00  0.77  0.11  0.00  0.00  0.86  0.00
  YS02001745YS02001748    1.00   0.00  0.00  0.00  0.04  0.01  0.00  0.95  0.04  0.00
  YS02001748YS02001751    1.00   0.00  0.00  0.00  0.80  0.20  0.00  0.00  0.82  0.00
  YS02001751YS02001754    1.00   0.00  0.00  0.00  0.10  0.01  0.00  0.90  0.03  0.00
  YS02001754YS02001757    1.00   0.00  0.00  0.00  1.00  0.00  0.00  0.00  0.88  0.00
  YS02001757CaochengTiaoxuchi    1.00   0.00  0.00  0.00  0.98  0.02  0.00  0.00  0.85  0.00
  YS02001759YS02001757    1.00   0.00  0.00  0.00  1.00  0.00  0.00  0.00  0.68  0.00
  YS02001762YS02001759    1.00   0.00  0.00  0.00  1.00  0.00  0.00  0.00  0.04  0.00
  YS02001765YS02001762    1.00   0.00  0.00  0.00  1.00  0.00  0.00  0.00  0.78  0.00
  YS02001767YS02001765    1.00   0.00  0.00  0.00  1.00  0.00  0.00  0.00  0.00  0.00
  YS02001770YS02001767    1.00   0.00  0.00  0.00  1.00  0.00  0.00  0.00  0.00  0.00
  YS02001774YS02001770    1.00   0.00  0.13  0.00  0.59  0.00  0.27  0.00  0.04  0.00
  YS02001779YS02001774    1.00   0.00  0.00  0.00  1.00  0.00  0.00  0.00  0.83  0.00
  YS02001783YS02001784    1.00   0.00  0.19  0.00  0.81  0.00  0.00  0.00  0.58  0.00
  YS02001784YS02001785    1.00   0.00  0.00  0.00  1.00  0.00  0.00  0.00  0.18  0.00
  YS02001786YS02001788    1.00   0.00  0.00  0.00  0.81  0.19  0.00  0.00  0.00  0.00
  YS02001788YS02001790    1.00   0.00  0.00  0.00  0.21  0.79  0.00  0.00  0.86  0.00
  YS02001790YS02001791    1.00   0.00  0.00  0.00  0.01  0.99  0.00  0.00  0.16  0.00
  YS02001791YS02001793    1.00   0.00  0.00  0.00  0.00  1.00  0.00  0.00  0.00  0.00
  YS02001793JiankangQianchi    1.00   0.00  0.00  0.00  0.99  0.01  0.00  0.00  0.97  0.00
  YS02001882YS02001884    1.00   0.16  0.01  0.00  0.83  0.00  0.00  0.00  0.00  0.00
  YS02001884YS02001887    1.00   0.06  0.05  0.00  0.89  0.00  0.00  0.00  0.00  0.00
  YS02001887YS02001890    1.00   0.00  0.00  0.00  0.97  0.00  0.03  0.00  0.00  0.00
  YS02001890YS02001895    1.00   0.00  0.17  0.00  0.83  0.00  0.00  0.00  0.00  0.00
  YS02001895YS02001898    1.00   0.17  0.00  0.00  0.81  0.00  0.02  0.00  0.00  0.00
  YS02001898YS02001901    1.00   0.17  0.00  0.00  0.82  0.00  0.00  0.00  0.01  0.00
  YS02001901YS02001904    1.00   0.17  0.00  0.00  0.83  0.00  0.00  0.00  0.00  0.00
  YS02001904YS02001907    1.00   0.00  0.17  0.00  0.83  0.00  0.00  0.00  0.00  0.00
  YS02001907YS02006553    1.00   0.00  0.02  0.00  0.98  0.00  0.00  0.00  0.00  0.00
  YS02001910YS02001907    1.00   0.00  0.00  0.00  0.97  0.00  0.00  0.03  0.12  0.00
  YS02001915YS02001910    1.00   0.00  0.00  0.00  0.96  0.04  0.00  0.00  0.17  0.00
  YS02001918YS02001915    1.00   0.00  0.00  0.00  0.98  0.02  0.00  0.00  0.79  0.00
  YS02001920YS02001918    1.00   0.00  0.00  0.00  1.00  0.00  0.00  0.00  0.01  0.00
  YS02001923YS02001920    1.00   0.00  0.00  0.00  1.00  0.00  0.00  0.00  0.95  0.00
  YS02001926YS02001923    1.00   0.00  0.07  0.00  0.04  0.00  0.89  0.00  0.00  0.00
  YS02001929YS02001926    1.00   0.00  0.13  0.00  0.87  0.00  0.00  0.00  0.84  0.00
  YS02006553YS02006556    1.00   0.01  0.00  0.00  0.99  0.00  0.00  0.00  0.03  0.00
  YS02006556YS02006558    1.00   0.00  0.00  0.00  1.00  0.00  0.00  0.00  0.00  0.00
  YS02006558YS02006561    1.00   0.19  0.00  0.00  0.03  0.78  0.00  0.00  0.18  0.00
  YS02006561YS02001783    1.00   0.19  0.00  0.00  0.06  0.76  0.00  0.00  0.72  0.00
  YS02163301YS02001633    1.00   0.00  0.16  0.00  0.84  0.00  0.00  0.00  0.00  0.00
  YS02163601YS02164001    1.00   0.00  0.08  0.00  0.92  0.00  0.00  0.00  0.00  0.00
  YS02164001YS02001641    1.00   0.01  0.07  0.00  0.92  0.00  0.00  0.00  0.06  0.00
  
  
  *************************
  Conduit Surcharge Summary
  *************************
  
  ----------------------------------------------------------------------------
                                                           Hours        Hours 
                         --------- Hours Full --------   Above Full   Capacity
  Conduit                Both Ends  Upstream  Dnstream   Normal Flow   Limited
  ----------------------------------------------------------------------------
  WS02003072WS02003073        0.01      0.01      0.01      0.53         0.01
  WS02004401WS02004402        0.01      0.01      0.01      0.01         0.01
  WS02004402WS02004403        0.01      0.01      0.01      0.01         0.01
  WS02004404WS02004405        0.01      0.01      0.01      2.19         0.01
  WS02004405WS02004406        0.01      0.01      0.01      0.29         0.01
  WS02006109WS02006110        0.38      0.38      1.14      0.43         0.01
  WS02006110WS02006113        0.01      0.01      1.13      0.01         0.01
  WS02006111WS02006112        0.01      0.01      1.58      0.01         0.01
  WS02006112WS02006115        0.01      0.01      0.33      0.01         0.01
  WS02006113WS02006111        0.01      0.01      0.01      0.01         0.01
  WS02006115WS02006116        0.01      0.01      0.01      0.01         0.01
  WS02006116WS02004401        0.01      0.01      0.01      0.01         0.01
  WS02006228WS02006109        1.10      1.14      1.10      1.75         1.10
  WS02006229WS02006228        1.09      1.11      1.09      1.47         1.08
  WS02006230WS02006229        1.23      1.41      1.23      2.66         1.23
  WS02006231WS02006230        0.38      0.38      0.45      2.22         0.01
  WS02006232WS02006231        0.43      0.43      1.13      0.48         0.01
  WS02006234WS02006232        1.07      1.07      1.13      0.47         0.46
  WS02006235WS02006234        0.62      0.63      1.08      2.14         0.01
  WS02006238WS02006235        1.09      1.10      1.12      0.01         0.01
  WS02006239WS02006238        1.10      1.11      1.10      1.28         1.03
  WS02006240WS02006239        1.08      1.09      1.09      1.27         0.99
  WS02006242WS02006240        1.09      1.09      1.22      1.46         0.01
  WS02006243WS02006242        1.08      1.08      1.14      0.01         0.02
  WS02006245WS02006243        1.07      1.07      1.08      0.88         0.67
  WS02006247WS02006245        1.06      1.07      1.06      1.88         1.06
  WS02006248WS02006247        1.06      1.06      1.06      0.01         0.02
  WS02006249WS02006248        1.06      1.06      1.06      1.83         0.01
  WS02006251WS02006249        1.05      1.05      1.06      1.33         1.02
  WS02006252WS02006251        1.39      1.39      1.42      1.39         0.01
  WS02006256WS02006235        2.13      2.17      6.51      0.87         0.01
  YS02001580YS02001583        0.35      0.35      0.40      0.01         0.01
  YS02001583YS02001586        0.36      0.36      0.47      0.01         0.01
  YS02001586YS02001590        0.47      0.47      0.53      0.01         0.01
  YS02001590YS02001593        0.53      0.53      0.54      0.57         0.01
  YS02001593YS02001596        0.53      0.53      0.61      0.01         0.01
  YS02001596YS02001600        0.64      0.64      0.72      0.01         0.01
  YS02001600YS02001601        0.78      0.78      1.06      0.01         0.01
  YS02001601YS02001602        0.94      0.94      1.10      0.74         0.01
  YS02001602YS02001605        0.89      0.89      0.94      1.88         0.01
  YS02001605YS02001607        0.85      0.89      0.85      1.01         0.85
  YS02001607YS02001610        0.47      0.47      0.49      0.01         0.01
  YS02001610YS02001613        0.47      0.47      0.49      0.01         0.01
  YS02001613YS02001616        0.43      0.43      0.47      0.01         0.01
  YS02001616YS02001619        0.43      0.43      0.43      0.01         0.01
  YS02001619YS02001622        0.42      0.43      0.42      0.57         0.41
  YS02001622YS02001625        0.42      0.42      0.57      0.01         0.01
  YS02001625YS02001629        0.37      0.37      0.57      0.01         0.01
  YS02001629YS02163301        0.55      0.55      0.56      0.24         0.23
  YS02001633YS02163601        0.58      0.58      0.60      0.40         0.41
  YS02001641YS02001644        0.47      0.50      0.47      1.16         0.47
  YS02001644YS02001647        0.30      0.30      0.47      0.04         0.01
  YS02001647YS02001649        0.30      0.30      0.37      0.01         0.01
  YS02001649YS02001757        0.36      0.37      0.39      0.28         0.25
  YS02001652YS02001649        0.25      0.25      0.37      0.01         0.01
  YS02001655YS02001652        0.09      0.09      0.22      0.01         0.01
  YS02001658YS02001655        0.02      0.02      0.09      0.01         0.01
  YS02001661YS02001658        0.01      0.01      0.02      0.01         0.01
  YS02001748YS02001751        0.01      0.01      0.04      0.01         0.01
  YS02001751YS02001754        0.04      0.04      0.10      0.01         0.01
  YS02001754YS02001757        0.14      0.14      0.39      0.01         0.01
  YS02001757CaochengTiaoxuchi        0.28      0.39      1.12      0.25         0.12
  YS02001759YS02001757        0.32      0.32      0.39      0.01         0.01
  YS02001762YS02001759        0.29      0.29      0.32      0.01         0.02
  YS02001765YS02001762        0.26      0.26      0.29      0.01         0.01
  YS02001767YS02001765        0.23      0.23      0.26      0.01         0.02
  YS02001770YS02001767        0.23      0.23      0.23      0.35         0.19
  YS02001774YS02001770        0.20      0.20      0.28      0.01         0.01
  YS02001779YS02001774        0.12      0.12      0.28      0.01         0.01
  YS02001783YS02001784        0.31      0.34      0.31      0.44         0.31
  YS02001784YS02001785        0.23      0.31      0.23      0.60         0.23
  YS02001786YS02001788        0.01      0.23      0.01      0.51         0.01
  YS02001790YS02001791        0.01      0.01      0.01      0.30         0.01
  YS02001793JiankangQianchi        0.01      0.01      6.40      0.01         0.01
  YS02001882YS02001884        0.29      0.29      0.30      0.01         0.01
  YS02001884YS02001887        0.32      0.32      0.32      0.01         0.01
  YS02001887YS02001890        0.34      0.34      0.35      0.01         0.01
  YS02001890YS02001895        0.28      0.28      0.36      0.01         0.01
  YS02001895YS02001898        0.27      0.27      0.28      0.01         0.01
  YS02001898YS02001901        0.28      0.28      0.31      0.01         0.01
  YS02001901YS02001904        0.31      0.31      0.31      0.01         0.01
  YS02001904YS02001907        0.31      0.31      0.49      0.01         0.01
  YS02001907YS02006553        0.60      0.60      0.66      0.01         0.01
  YS02001910YS02001907        0.35      0.35      0.48      0.01         0.01
  YS02001915YS02001910        0.29      0.29      0.35      0.01         0.01
  YS02001918YS02001915        0.22      0.22      0.29      0.01         0.01
  YS02001920YS02001918        0.22      0.22      0.23      0.01         0.01
  YS02001923YS02001920        0.17      0.17      0.23      0.01         0.01
  YS02001926YS02001923        0.01      0.01      0.01      0.01         0.01
  YS02001929YS02001926        0.01      0.01      0.01      0.01         0.01
  YS02006553YS02006556        0.42      0.42      0.50      0.01         0.01
  YS02006556YS02006558        0.46      0.46      0.51      0.01         0.01
  YS02006558YS02006561        0.25      0.41      0.25      0.57         0.25
  YS02006561YS02001783        0.18      0.18      0.34      0.01         0.01
  YS02163301YS02001633        0.56      0.56      0.59      0.01         0.01
  YS02163601YS02164001        0.51      0.51      0.60      0.16         0.01
  YS02164001YS02001641        0.50      0.51      0.50      0.64         0.48
  
  
  ***************
  Pumping Summary
  ***************
  
  ---------------------------------------------------------------------------------------------------------
                                                  Min       Avg       Max     Total     Power    % Time Off
                        Percent   Number of      Flow      Flow      Flow    Volume     Usage    Pump Curve
  Pump                 Utilized   Start-Ups       LPS       LPS       LPS  10^6 ltr     Kw-hr    Low   High
  ---------------------------------------------------------------------------------------------------------
  CC-R1                   18.30          26      0.00    683.00    683.00     3.599     63.87    0.0   41.8
  CC-R2                   13.48          22      0.00    683.00    683.00     2.651     46.67    0.0   49.8
  CC-S1                   22.66          23      0.00    200.00    200.00     1.305      8.10    0.0    0.0
  CC-S2                   19.86          17      0.00    200.00    200.00     1.144      7.08    0.0    0.0
  JK-R1                    4.42          17      0.00   1000.00   1000.00     1.273     12.68    0.0    0.0
  JK-R2                    2.98          17      0.00   1000.00   1000.00     0.857      7.88    0.0    0.0
  JK-S                    10.25          37      0.00    300.00    300.00     0.886     15.85    0.0    0.0
  

  Analysis begun on:  Fri Aug  4 07:05:05 2023
  Analysis ended on:  Fri Aug  4 07:05:10 2023
  Total elapsed time: 00:00:05