
  OWA STORM WATER MANAGEMENT MODEL - VERSION v5.1.14 (OWA 2022-07-31)
  --------------------------------------------------------------

  WARNING 04: minimum elevation drop used for Conduit WS02004404WS02004405
  WARNING 03: negative offset ignored for Link YS02001904YS02001907
  
  *********************************************************
  NOTE: The summary statistics displayed in this report are
  based on results found at every computational time step,  
  not just on results from each reporting time step.
  *********************************************************
  
  ****************
  Analysis Options
  ****************
  Flow Units ............... LPS
  Process Models:
    Rainfall/Runoff ........ YES
    RDII ................... NO
    Snowmelt ............... NO
    Groundwater ............ NO
    Flow Routing ........... YES
    Ponding Allowed ........ NO
    Water Quality .......... NO
  Infiltration Method ...... HORTON
  Flow Routing Method ...... DYNWAVE
  Surcharge Method ......... EXTRAN
  Starting Date ............ 08/28/2015 08:00:00
  Ending Date .............. 08/28/2015 16:00:00
  Antecedent Dry Days ...... 8.0
  Report Time Step ......... 00:01:00
  Wet Time Step ............ 00:01:00
  Dry Time Step ............ 00:01:00
  Routing Time Step ........ 30.00 sec
  Variable Time Step ....... YES
  Maximum Trials ........... 8
  Number of Threads ........ 4
  Head Tolerance ........... 0.001500 m
  
  
  **************************        Volume         Depth
  Runoff Quantity Continuity     hectare-m            mm
  **************************     ---------       -------
  Initial LID Storage ......         0.072         1.184
  Total Precipitation ......         6.438       106.270
  Evaporation Loss .........         0.000         0.000
  Infiltration Loss ........         0.221         3.640
  Surface Runoff ...........         5.087        83.975
  Final Storage ............         1.204        19.872
  Continuity Error (%) .....        -0.030
  
  
  **************************        Volume        Volume
  Flow Routing Continuity        hectare-m      10^6 ltr
  **************************     ---------     ---------
  Dry Weather Inflow .......         0.630         6.296
  Wet Weather Inflow .......         5.086        50.857
  Groundwater Inflow .......         0.000         0.000
  RDII Inflow ..............         0.000         0.000
  External Inflow ..........         0.105         1.045
  External Outflow .........         3.521        35.214
  Flooding Loss ............         2.284        22.838
  Evaporation Loss .........         0.000         0.000
  Exfiltration Loss ........         0.000         0.000
  Initial Stored Volume ....         0.303         3.031
  Final Stored Volume ......         0.319         3.191
  Continuity Error (%) .....        -0.024
  
  
  *************************
  Highest Continuity Errors
  *************************
  Node YS02001583 (-5.66%)
  Node YS02001884 (4.56%)
  Node WS02006256 (3.62%)
  Node HS02004817 (1.57%)
  
  
  ***************************
  Time-Step Critical Elements
  ***************************
  Link WS02006280WS02006229 (46.39%)
  Link YS02001791YS02001793 (20.74%)
  Link WS02006238WS02006235 (4.91%)
  Link YS02006556YS02006558 (4.48%)
  Link YS02001904YS02001907 (2.98%)
  
  
  ********************************
  Highest Flow Instability Indexes
  ********************************
  Link WS02006238WS02006235 (41)
  Link WS02004404WS02004405 (39)
  Link WS02006113WS02006111 (39)
  Link WS02006234WS02006232 (35)
  Link WS02006239WS02006238 (35)
  
  
  *************************
  Routing Time Step Summary
  *************************
  Minimum Time Step           :     0.00 sec
  Average Time Step           :     2.69 sec
  Maximum Time Step           :     8.25 sec
  Percent in Steady State     :    -0.00
  Average Iterations per Step :     4.72
  Percent Not Converging      :    31.33
  
  
  ***************************
  Subcatchment Runoff Summary
  ***************************
  
  ------------------------------------------------------------------------------------------------------------------------------
                            Total      Total      Total      Total     Imperv       Perv      Total       Total     Peak  Runoff
                           Precip      Runon       Evap      Infil     Runoff     Runoff     Runoff      Runoff   Runoff   Coeff
  Subcatchment                 mm         mm         mm         mm         mm         mm         mm    10^6 ltr      LPS
  ------------------------------------------------------------------------------------------------------------------------------
  sub0                     106.27       0.00       0.00       1.06      97.60       6.38     103.98        0.08    17.00   0.978
  sub1                     106.27       0.00       0.00       1.64      83.66       8.84      92.50        0.62   122.55   0.870
  sub10                    106.27       0.00       0.00       1.04      78.40       5.87      84.27        0.93   186.19   0.793
  sub11                    106.27       0.00       0.00       0.94      72.85       5.48      78.33        0.91   183.33   0.737
  sub12                    106.27       0.00       0.00       1.65      74.06       9.56      83.62        0.73   147.95   0.787
  sub14                    106.27       0.00       0.00       1.03      69.00       5.89      74.88        0.71   143.51   0.705
  sub15                    106.27       0.00       0.00       4.71      62.03      22.22      84.25        1.45   277.04   0.793
  sub16                    106.27       0.00       0.00       5.01      60.50      25.17      85.68        0.90   176.53   0.806
  sub17                    106.27       0.00       0.00       5.36      66.78      26.47      93.24        0.80   156.12   0.877
  sub2                     106.27       0.00       0.00       7.40      61.16      29.02      90.18        0.84   143.34   0.849
  sub22                    106.27       0.00       0.00       8.33      57.91      35.92      93.83        5.93  1051.21   0.883
  sub23                    106.27       0.00       0.00       6.28      59.63      29.19      88.82        4.24   796.88   0.836
  sub3                     106.27       0.00       0.00       7.92      60.59      28.17      88.76        2.00   323.17   0.835
  sub4                     106.27       0.00       0.00       1.79      82.47       8.56      91.02        1.90   347.81   0.857
  sub5                     106.27       0.00       0.00       0.92      80.93       5.25      86.18        0.98   194.93   0.811
  sub60                    106.27       0.00       0.00       1.48      71.25       8.36      79.62        1.05   211.14   0.749
  sub61                    106.27       0.00       0.00       2.28      71.19      12.49      83.68        1.54   309.77   0.787
  sub62                    106.27       0.00       0.00       1.00      75.90       5.68      81.58        2.24   447.38   0.768
  sub63                    106.27       0.00       0.00       4.20      60.97      21.03      82.01        1.86   366.43   0.772
  sub64                    106.27       0.00       0.00       2.01      69.44      10.41      79.85        1.92   379.77   0.751
  sub65                    106.27       0.00       0.00       1.85      74.95       9.50      84.46        2.33   456.37   0.795
  sub66                    106.27       0.00       0.00       4.87      58.99      19.56      78.56        3.66   641.63   0.739
  sub67                    106.27       0.00       0.00       0.99      77.81       5.87      83.67        1.56   314.11   0.787
  sub68                    106.27       0.00       0.00       1.75      68.72       9.58      78.30        2.15   433.42   0.737
  sub69                    106.27       0.00       0.00       1.64      71.50      10.99      82.48        3.05   593.33   0.776
  sub7                     106.27       0.00       0.00       1.09      73.95       6.32      80.27        0.27    54.56   0.755
  sub70                    106.27       0.00       0.00       5.43      57.31      24.15      81.46        2.35   386.39   0.767
  sub71                    106.27       0.00       0.00       0.93      68.96       5.15      74.10        1.94   384.59   0.697
  sub72                    106.27       0.00       0.00       0.89      74.51       4.80      79.30        1.09   211.03   0.746
  sub8                     106.27       0.00       0.00       1.07      71.87       6.13      78.00        0.50   100.38   0.734
  sub9                     106.27       0.00       0.00       1.04      69.67       5.94      75.62        0.36    73.24   0.712
  

  ***********************
  LID Performance Summary
  ***********************

  --------------------------------------------------------------------------------------------------------------------
                                         Total      Evap     Infil   Surface    Drain    Initial     Final  Continuity
                                        Inflow      Loss      Loss   Outflow   Outflow   Storage   Storage       Error
  Subcatchment      LID Control             mm        mm        mm        mm        mm        mm        mm           %
  --------------------------------------------------------------------------------------------------------------------
  sub1              GreenRoof           106.27      0.00      0.00      0.00      0.00      7.05    113.42       -0.09
  sub10             GreenRoof           106.27      0.00      0.00      0.00      0.00      7.05    113.42       -0.09
  sub11             GreenRoof           106.27      0.00      0.00      0.00      0.00      7.05    113.42       -0.09
  sub12             GreenRoof           106.27      0.00      0.00      0.00      0.00      7.05    113.42       -0.09
  sub14             GreenRoof           106.27      0.00      0.00      0.00      0.00      7.05    113.42       -0.09
  sub15             GreenRoof           106.27      0.00      0.00      0.00      0.00      7.05    113.42       -0.09
  sub16             GreenRoof           106.27      0.00      0.00      0.00      0.00      7.05    113.42       -0.09
  sub17             GreenRoof           106.27      0.00      0.00      0.00      0.00      7.05    113.42       -0.09
  sub2              GreenRoof           106.27      0.00      0.00      0.00      0.00      7.05    113.42       -0.09
  sub22             GreenRoof           106.27      0.00      0.00      0.00      0.00      7.05    113.42       -0.09
  sub23             GreenRoof           106.27      0.00      0.00      0.00      0.00      7.05    113.42       -0.09
  sub3              GreenRoof           106.27      0.00      0.00      0.00      0.00      7.05    113.42       -0.09
  sub4              GreenRoof           106.27      0.00      0.00      0.00      0.00      7.05    113.42       -0.09
  sub5              GreenRoof           106.27      0.00      0.00      0.00      0.00      7.05    113.42       -0.09
  sub60             GreenRoof           106.27      0.00      0.00      0.00      0.00      7.05    113.42       -0.09
  sub61             GreenRoof           106.27      0.00      0.00      0.00      0.00      7.05    113.42       -0.09
  sub62             GreenRoof           106.27      0.00      0.00      0.00      0.00      7.05    113.42       -0.09
  sub63             GreenRoof           106.27      0.00      0.00      0.00      0.00      7.05    113.42       -0.09
  sub64             GreenRoof           106.27      0.00      0.00      0.00      0.00      7.05    113.42       -0.09
  sub65             GreenRoof           106.27      0.00      0.00      0.00      0.00      7.05    113.42       -0.09
  sub66             GreenRoof           106.27      0.00      0.00      0.00      0.00      7.05    113.42       -0.09
  sub67             GreenRoof           106.27      0.00      0.00      0.00      0.00      7.05    113.42       -0.09
  sub68             GreenRoof           106.27      0.00      0.00      0.00      0.00      7.05    113.42       -0.09
  sub69             GreenRoof           106.27      0.00      0.00      0.00      0.00      7.05    113.42       -0.09
  sub7              GreenRoof           106.27      0.00      0.00      0.00      0.00      7.05    113.42       -0.09
  sub70             GreenRoof           106.27      0.00      0.00      0.00      0.00      7.05    113.42       -0.09
  sub71             GreenRoof           106.27      0.00      0.00      0.00      0.00      7.05    113.42       -0.09
  sub72             GreenRoof           106.27      0.00      0.00      0.00      0.00      7.05    113.42       -0.09
  sub8              GreenRoof           106.27      0.00      0.00      0.00      0.00      7.05    113.42       -0.09
  sub9              GreenRoof           106.27      0.00      0.00      0.00      0.00      7.05    113.42       -0.09
  
  ******************
  Node Depth Summary
  ******************
  
  ---------------------------------------------------------------------------------
                                 Average  Maximum  Maximum  Time of Max    Reported
                                   Depth    Depth      HGL   Occurrence   Max Depth
  Node                 Type       Meters   Meters   Meters  days hr:min      Meters
  ---------------------------------------------------------------------------------
  HS02004478           JUNCTION     0.47     1.51    10.74     0  01:15        1.44
  HS02004479           JUNCTION     0.58     1.70    10.90     0  01:12        1.62
  HS02004480           JUNCTION     0.54     1.64    10.88     0  01:12        1.57
  HS02004770           JUNCTION     0.54     1.42    11.25     0  01:12        1.42
  HS02004777           JUNCTION     0.56     1.48    11.28     0  01:12        1.48
  HS02004785           JUNCTION     0.44     1.49    11.39     0  01:12        1.32
  HS02004788           JUNCTION     0.41     1.42    11.32     0  01:12        1.32
  HS02004792           JUNCTION     0.55     1.60    11.12     0  01:09        1.60
  HS02004799           JUNCTION     0.64     1.76    10.97     0  01:12        1.76
  HS02004802           JUNCTION     0.57     1.67    10.79     0  01:15        1.53
  HS02004807           JUNCTION     0.54     1.85    11.02     0  01:15        1.51
  HS02004817           JUNCTION     0.85     2.40    11.25     0  01:15        1.84
  HS02004824           JUNCTION     0.38     2.00    11.41     0  01:15        1.29
  HS02004830           JUNCTION     0.36     2.03    11.50     0  01:15        1.24
  HS02004837           JUNCTION     0.30     2.04    11.62     0  01:15        1.12
  HS02004842           JUNCTION     0.60     2.22    11.49     0  01:15        1.41
  HS02004848           JUNCTION     0.27     2.07    11.67     0  01:15        1.14
  HS02004852           JUNCTION     0.29     2.10    11.61     0  01:15        1.10
  HS02004856           JUNCTION     0.34     2.07    11.50     0  01:15        1.15
  HS02004862           JUNCTION     0.30     1.97    11.35     0  01:15        1.68
  HS02004870           JUNCTION     0.29     1.90    11.18     0  01:15        1.14
  HS02004876           JUNCTION     0.37     1.98    11.01     0  01:15        1.30
  HS02004881           JUNCTION     0.30     1.64    10.67     0  01:15        1.17
  HS02004901           JUNCTION     0.55     1.42    11.24     0  01:12        1.42
  WS02001211           JUNCTION     0.68     0.86     5.69     0  01:21        0.84
  WS02001212           JUNCTION     0.42     0.63     5.69     0  01:20        0.60
  WS02001213           JUNCTION     0.66     0.96     5.72     0  01:20        0.86
  WS02003059           JUNCTION     0.72     0.97     5.65     0  01:22        0.96
  WS02003060           JUNCTION     0.45     0.69     5.62     0  01:23        0.68
  WS02003066           JUNCTION     0.27     0.45     6.00     0  01:21        0.45
  WS02003067           JUNCTION     0.59     0.93     6.25     0  01:15        0.88
  WS02003069           JUNCTION     0.50     0.77     5.36     0  01:24        0.77
  WS02003072           JUNCTION     0.56     0.81     5.18     0  01:22        0.80
  WS02003073           JUNCTION     0.34     0.51     4.58     0  01:23        0.51
  WS02004138           JUNCTION     0.13     0.14     7.39     0  00:29        0.14
  WS02004139           JUNCTION     0.61     0.77     5.68     0  01:19        0.77
  WS02004401           JUNCTION     0.96     2.66     8.66     0  01:11        2.66
  WS02004402           JUNCTION     0.96     2.74     8.70     0  01:11        2.74
  WS02004403           JUNCTION     0.95     2.80     8.73     0  01:12        2.80
  WS02004404           JUNCTION     1.00     2.77     8.62     0  01:12        2.77
  WS02004405           JUNCTION     0.98     2.64     8.49     0  01:11        2.62
  WS02004406           JUNCTION     0.95     2.58     8.41     0  01:11        2.07
  WS02004407           JUNCTION     0.38     0.84     7.15     0  01:17        0.84
  WS02004409           JUNCTION     0.69     1.34     7.11     0  01:17        1.34
  WS02004410           JUNCTION     0.68     1.35     7.07     0  01:14        1.24
  WS02004411           JUNCTION     0.66     1.19     6.87     0  01:15        1.16
  WS02004412           JUNCTION     0.64     1.30     6.94     0  01:15        1.08
  WS02004413           JUNCTION     0.75     1.86     7.33     0  01:14        1.13
  WS02006109           JUNCTION     1.38     2.64     9.26     0  01:12        2.64
  WS02006110           JUNCTION     1.25     2.61     9.20     0  01:12        2.61
  WS02006111           JUNCTION     0.70     2.08     8.79     0  01:12        2.08
  WS02006112           JUNCTION     1.24     2.68     8.56     0  01:11        2.68
  WS02006113           JUNCTION     0.79     2.17     9.07     0  01:12        2.17
  WS02006115           JUNCTION     0.93     2.71     8.85     0  01:11        2.45
  WS02006116           JUNCTION     0.98     2.84     8.88     0  01:11        2.58
  WS02006228           JUNCTION     1.50     3.03     9.68     0  01:46        3.03
  WS02006229           JUNCTION     1.54     3.20     9.90     0  01:15        3.16
  WS02006230           JUNCTION     1.37     2.65     9.39     0  01:10        2.65
  WS02006231           JUNCTION     1.05     2.24     9.36     0  01:09        2.24
  WS02006232           JUNCTION     1.10     2.18     9.22     0  01:09        2.18
  WS02006234           JUNCTION     0.95     1.96     9.12     0  01:10        1.96
  WS02006235           JUNCTION     0.94     2.00     9.16     0  01:10        1.93
  WS02006238           JUNCTION     0.96     2.08     9.23     0  01:10        1.96
  WS02006239           JUNCTION     0.87     2.03     9.24     0  01:10        2.03
  WS02006240           JUNCTION     0.79     2.10     9.39     0  01:10        2.10
  WS02006242           JUNCTION     0.79     1.55     8.82     0  01:10        1.55
  WS02006243           JUNCTION     0.67     1.48     8.90     0  01:10        1.48
  WS02006245           JUNCTION     0.63     1.56     9.04     0  01:10        1.36
  WS02006247           JUNCTION     0.63     1.47     8.97     0  01:10        1.31
  WS02006248           JUNCTION     0.56     1.10     8.69     0  01:10        1.10
  WS02006249           JUNCTION     0.57     1.09     8.69     0  01:10        1.09
  WS02006251           JUNCTION     0.82     2.21     9.88     0  01:10        2.21
  WS02006252           JUNCTION     0.54     1.50     9.74     0  00:00        1.50
  WS02006253           JUNCTION     0.97     3.52    11.16     0  01:11        2.51
  WS02006256           JUNCTION     1.20     2.35     9.28     0  00:00        2.35
  WS02006280           JUNCTION     0.64     1.72     9.99     0  01:15        1.66
  WS02006284           JUNCTION     0.86     1.91    10.31     0  01:15        1.83
  WS02006287           JUNCTION     0.58     1.68    10.63     0  01:15        1.59
  WSF200               JUNCTION     0.28     0.54     5.78     0  01:15        0.52
  YS02001580           JUNCTION     0.26     1.05     9.59     0  01:13        0.78
  YS02001583           JUNCTION     0.30     1.14     9.64     0  01:13        0.86
  YS02001586           JUNCTION     0.44     1.13     9.30     0  01:13        1.13
  YS02001590           JUNCTION     0.58     1.40     9.26     0  01:10        1.37
  YS02001593           JUNCTION     0.51     1.46     9.32     0  02:54        1.46
  YS02001596           JUNCTION     0.68     1.70     9.12     0  01:13        1.68
  YS02001600           JUNCTION     0.79     1.87     9.00     0  01:13        1.87
  YS02001601           JUNCTION     0.98     2.06     8.90     0  01:12        2.06
  YS02001602           JUNCTION     0.85     1.87     8.77     0  01:13        1.87
  YS02001605           JUNCTION     0.77     1.78     8.68     0  01:36        1.78
  YS02001607           JUNCTION     0.69     1.65     8.49     0  01:37        1.64
  YS02001610           JUNCTION     0.73     1.68     8.48     0  01:13        1.68
  YS02001613           JUNCTION     0.68     1.66     8.50     0  01:42        1.65
  YS02001616           JUNCTION     0.61     1.61     8.52     0  01:42        1.59
  YS02001619           JUNCTION     0.59     1.60     8.53     0  01:42        1.57
  YS02001622           JUNCTION     0.57     1.57     8.48     0  01:42        1.56
  YS02001625           JUNCTION     0.83     1.78     8.38     0  01:13        1.78
  YS02001629           JUNCTION     0.72     1.85     8.40     0  01:13        1.85
  YS02001633           JUNCTION     0.77     2.02     8.47     0  01:35        2.02
  YS02001641           JUNCTION     0.69     1.89     8.33     0  01:35        1.89
  YS02001644           JUNCTION     0.66     1.74     8.17     0  01:35        1.74
  YS02001647           JUNCTION     0.40     1.48     8.09     0  01:30        1.48
  YS02001649           JUNCTION     0.44     1.46     7.85     0  01:30        1.46
  YS02001652           JUNCTION     0.30     1.44     8.03     0  01:33        1.19
  YS02001655           JUNCTION     0.19     1.31     8.16     0  01:28        0.95
  YS02001658           JUNCTION     0.12     0.64     7.78     0  01:28        0.64
  YS02001661           JUNCTION     0.16     0.33     7.74     0  01:22        0.33
  YS02001664           JUNCTION     0.09     0.23     8.15     0  01:26        0.23
  YS02001745           JUNCTION     0.07     0.19     7.71     0  01:24        0.19
  YS02001748           JUNCTION     0.09     0.46     7.54     0  01:26        0.46
  YS02001751           JUNCTION     0.13     0.72     7.60     0  01:26        0.69
  YS02001754           JUNCTION     0.22     0.99     7.60     0  01:26        0.97
  YS02001757           JUNCTION     0.42     1.37     7.63     0  01:30        1.37
  YS02001759           JUNCTION     0.36     1.25     7.61     0  01:26        1.25
  YS02001762           JUNCTION     0.35     1.21     7.61     0  01:26        1.21
  YS02001765           JUNCTION     0.32     1.18     7.63     0  01:21        1.16
  YS02001767           JUNCTION     0.31     1.13     7.62     0  01:26        1.12
  YS02001770           JUNCTION     0.32     1.12     7.62     0  01:26        1.11
  YS02001774           JUNCTION     0.39     1.19     7.62     0  01:26        1.17
  YS02001779           JUNCTION     0.21     0.94     7.63     0  01:26        0.92
  YS02001783           JUNCTION     0.40     1.22     7.36     0  01:46        1.22
  YS02001784           JUNCTION     0.40     1.11     7.18     0  01:20        1.10
  YS02001786           JUNCTION     0.33     0.87     6.90     0  01:20        0.86
  YS02001788           JUNCTION     0.25     0.62     6.59     0  01:22        0.61
  YS02001790           JUNCTION     0.29     0.72     6.36     0  01:25        0.71
  YS02001791           JUNCTION     0.18     0.44     5.91     0  01:23        0.43
  YS02001793           JUNCTION     0.09     0.21     5.04     0  01:31        0.21
  YS02001882           JUNCTION     0.48     1.63     8.34     0  01:20        1.59
  YS02001884           JUNCTION     0.57     1.72     8.34     0  01:20        1.69
  YS02001887           JUNCTION     0.65     1.80     8.33     0  01:20        1.75
  YS02001890           JUNCTION     0.68     1.81     8.32     0  01:20        1.78
  YS02001895           JUNCTION     0.45     1.57     8.31     0  01:20        1.53
  YS02001898           JUNCTION     0.46     1.57     8.30     0  01:20        1.54
  YS02001901           JUNCTION     0.57     1.68     8.29     0  01:20        1.66
  YS02001904           JUNCTION     0.55     1.64     8.27     0  01:20        1.63
  YS02001907           JUNCTION     0.88     1.96     8.25     0  01:20        1.96
  YS02001910           JUNCTION     0.68     1.79     8.30     0  01:21        1.78
  YS02001915           JUNCTION     0.48     1.62     8.34     0  01:21        1.61
  YS02001918           JUNCTION     0.28     1.31     8.37     0  01:21        1.29
  YS02001920           JUNCTION     0.36     1.39     8.40     0  01:21        1.36
  YS02001923           JUNCTION     0.21     1.15     8.41     0  01:21        1.12
  YS02001926           JUNCTION     0.22     0.98     8.43     0  01:21        0.94
  YS02001929           JUNCTION     0.13     0.73     8.42     0  01:21        0.70
  YS02006553           JUNCTION     0.88     1.96     8.25     0  01:35        1.96
  YS02006556           JUNCTION     0.85     1.91     8.22     0  01:20        1.90
  YS02006558           JUNCTION     0.89     1.94     8.21     0  01:24        1.94
  YS02006561           JUNCTION     0.25     0.88     7.54     0  01:20        0.86
  YS02163301           JUNCTION     0.73     1.92     8.43     0  01:35        1.92
  YS02163601           JUNCTION     0.78     2.05     8.45     0  01:35        2.05
  YS02164001           JUNCTION     0.69     1.97     8.42     0  01:35        1.97
  YSB1154              JUNCTION     0.72     1.98    11.03     0  01:12        1.80
  YSB1171              JUNCTION     0.87     1.95    10.85     0  01:12        1.95
  YSB1174              JUNCTION     0.67     1.84    10.95     0  01:12        1.73
  YSB6556              JUNCTION     0.62     1.80    10.97     0  01:12        1.68
  CC-1                 OUTFALL      0.00     0.00     0.00     0  00:00        0.00
  CC-2                 OUTFALL      0.00     0.00     0.00     0  00:00        0.00
  JK-1                 OUTFALL      0.00     0.00     0.00     0  00:00        0.00
  JK-2                 OUTFALL      0.00     0.00     0.00     0  00:00        0.00
  WSC                  OUTFALL      0.34     0.51     1.18     0  01:26        0.51
  CC-storage           STORAGE      0.52     0.80     6.30     0  00:00        0.77
  JK-storage           STORAGE      1.21     4.23     5.03     0  01:59        4.12
  XR-storage           STORAGE      7.89     9.26     7.26     0  08:00        9.26
  
  
  *******************
  Node Inflow Summary
  *******************
  
  -------------------------------------------------------------------------------------------------
                                  Maximum  Maximum                  Lateral       Total        Flow
                                  Lateral    Total  Time of Max      Inflow      Inflow     Balance
                                   Inflow   Inflow   Occurrence      Volume      Volume       Error
  Node                 Type           LPS      LPS  days hr:min    10^6 ltr    10^6 ltr     Percent
  -------------------------------------------------------------------------------------------------
  HS02004478           JUNCTION      0.00  2168.47     0  01:26           0        14.7      -0.013
  HS02004479           JUNCTION      0.00   348.95     0  01:12           0        1.72       0.044
  HS02004480           JUNCTION      0.00  2081.43     0  01:12           0          13       0.002
  HS02004770           JUNCTION    796.88   796.88     0  01:27        4.24        4.56       0.057
  HS02004777           JUNCTION      0.03   723.10     0  01:12    0.000864        3.69       0.146
  HS02004785           JUNCTION      0.15   732.10     0  01:11     0.00432        3.69       0.007
  HS02004788           JUNCTION    278.71   873.52     0  01:12         1.5        5.18       0.005
  HS02004792           JUNCTION   1051.49  1712.91     0  01:27        5.93        11.1       0.000
  HS02004799           JUNCTION    143.51  1762.29     0  01:12       0.713        11.3       0.049
  HS02004802           JUNCTION      0.00   403.25     0  01:28           0        1.76       0.177
  HS02004807           JUNCTION    183.33   421.71     0  01:12        0.91        1.85       0.225
  HS02004817           JUNCTION      0.60   422.12     0  01:12      0.0173        1.06       1.591
  HS02004824           JUNCTION    347.86   617.44     0  01:12         1.9        2.33       0.010
  HS02004830           JUNCTION      0.15   622.06     0  01:12     0.00432        1.71       0.053
  HS02004837           JUNCTION    192.54   768.57     0  01:13        1.11        2.63       0.006
  HS02004842           JUNCTION      0.00   695.28     0  01:13           0        2.44       0.527
  HS02004848           JUNCTION    323.17   911.46     0  01:15           2        4.32      -0.009
  HS02004852           JUNCTION      0.00   892.51     0  01:15           0        4.22      -0.009
  HS02004856           JUNCTION     73.24   954.28     0  01:15       0.364        4.58       0.020
  HS02004862           JUNCTION    143.54  1031.76     0  01:14       0.846        5.43       0.005
  HS02004870           JUNCTION    100.38  1058.45     0  01:14       0.498        5.92       0.001
  HS02004876           JUNCTION    122.55  1131.96     0  01:15       0.615        6.54       0.017
  HS02004881           JUNCTION     54.56  1191.57     0  01:15        0.27        6.82      -0.011
  HS02004901           JUNCTION    176.53   442.08     0  01:26       0.897         1.6       0.110
  WS02001211           JUNCTION      7.35   355.76     0  01:19       0.212        5.45       0.609
  WS02001212           JUNCTION      0.00   461.76     0  01:17           0        5.42       0.290
  WS02001213           JUNCTION      0.00   432.51     0  01:16           0        5.42       0.322
  WS02003059           JUNCTION      0.00   462.91     0  01:16           0        5.43       0.588
  WS02003060           JUNCTION     16.53  1532.21     0  01:23       0.476        16.4       0.089
  WS02003066           JUNCTION      0.00  1253.05     0  01:20           0        10.6       0.017
  WS02003067           JUNCTION      0.00  1245.55     0  01:26           0        10.6       0.040
  WS02003069           JUNCTION      0.32  1489.51     0  01:23     0.00922        16.4       0.095
  WS02003072           JUNCTION      0.00  1480.25     0  01:24           0        16.4       0.128
  WS02003073           JUNCTION      1.82  1478.32     0  01:25      0.0524        16.4       0.130
  WS02004138           JUNCTION      0.00   380.00     0  00:00           0        5.25       0.057
  WS02004139           JUNCTION      0.32   303.09     0  01:18     0.00924        5.26       0.509
  WS02004401           JUNCTION      0.00  1368.24     0  01:11           0        10.7       0.093
  WS02004402           JUNCTION      0.00  1272.54     0  01:12           0        10.7       0.094
  WS02004403           JUNCTION      0.00  1286.99     0  01:12           0        10.7       0.090
  WS02004404           JUNCTION      0.16  1303.12     0  01:12     0.00467        10.7       0.076
  WS02004405           JUNCTION      0.04  1327.04     0  01:12      0.0011        10.7       0.121
  WS02004406           JUNCTION      0.00  1375.43     0  01:12           0        10.6       0.196
  WS02004407           JUNCTION      0.00  1389.98     0  01:12           0        10.6       0.011
  WS02004409           JUNCTION      0.00  1356.46     0  01:12           0        10.6       0.028
  WS02004410           JUNCTION      0.00  1378.34     0  01:12           0        10.6       0.047
  WS02004411           JUNCTION      0.00  1359.60     0  01:13           0        10.6       0.060
  WS02004412           JUNCTION      0.00  1297.75     0  01:14           0        10.6       0.073
  WS02004413           JUNCTION      0.00  1245.62     0  01:26           0        10.6       0.148
  WS02006109           JUNCTION      1.23  1297.19     0  01:11      0.0354        10.2       0.079
  WS02006110           JUNCTION      0.00  1295.47     0  01:11           0        9.93       0.088
  WS02006111           JUNCTION      0.00  1289.50     0  01:11           0        9.92       0.005
  WS02006112           JUNCTION    156.12  1402.09     0  01:11         0.8        10.7       0.171
  WS02006113           JUNCTION      0.00  1293.37     0  01:11           0        9.92       0.022
  WS02006115           JUNCTION      0.00  1402.37     0  01:11           0        10.7       0.062
  WS02006116           JUNCTION      0.00  1398.14     0  01:11           0        10.7       0.023
  WS02006228           JUNCTION      0.00  1298.14     0  01:11           0        10.1       0.040
  WS02006229           JUNCTION      0.00  2169.19     0  01:27           0        15.6       0.044
  WS02006230           JUNCTION     10.28   958.00     0  01:26       0.296         6.4       0.089
  WS02006231           JUNCTION      0.00   650.72     0  01:09           0         3.9      -0.062
  WS02006232           JUNCTION      0.00   632.48     0  01:09           0        3.88       0.078
  WS02006234           JUNCTION      0.00   632.55     0  01:09           0        3.85      -0.023
  WS02006235           JUNCTION      0.00   634.47     0  01:10           0        3.52      -0.005
  WS02006238           JUNCTION      0.00   633.52     0  01:10           0        3.44      -0.010
  WS02006239           JUNCTION      0.00   746.88     0  01:10           0        3.39      -0.032
  WS02006240           JUNCTION      0.00   982.66     0  01:10           0        3.36      -0.132
  WS02006242           JUNCTION      0.00   804.36     0  01:10           0        3.36      -0.055
  WS02006243           JUNCTION      0.00   567.15     0  01:10           0        2.46      -0.063
  WS02006245           JUNCTION      0.00   667.56     0  01:10           0        2.47       0.384
  WS02006247           JUNCTION      0.00   703.42     0  01:10           0        2.47      -0.077
  WS02006248           JUNCTION      0.00   720.95     0  01:10           0        2.93      -0.074
  WS02006249           JUNCTION      0.00  1323.79     0  01:15           0        8.16       0.105
  WS02006251           JUNCTION      0.08  1388.55     0  02:18     0.00222        8.27      -0.062
  WS02006252           JUNCTION      0.00  2000.00     0  01:16           0        3.93      -0.722
  WS02006253           JUNCTION     17.00  1215.19     0  01:15      0.0842        6.99      -0.066
  WS02006256           JUNCTION      0.00  1500.00     0  00:06           0        2.81       3.758
  WS02006280           JUNCTION      0.00  2168.56     0  01:26           0        14.7      -0.017
  WS02006284           JUNCTION      0.10  2168.54     0  01:26     0.00275        14.7       0.001
  WS02006287           JUNCTION      0.00  2169.02     0  01:26           0        14.7       0.045
  WSF200               JUNCTION      0.00  1251.96     0  01:18           0        10.6       0.011
  YS02001580           JUNCTION      0.00    97.05     0  01:13           0     0.00432      -0.422
  YS02001583           JUNCTION      0.00   138.08     0  01:12           0      0.0156      -5.360
  YS02001586           JUNCTION    386.39   386.53     0  01:29        2.35        2.37       0.069
  YS02001590           JUNCTION      0.00   318.38     0  01:46           0        2.23      -0.039
  YS02001593           JUNCTION      0.00   318.19     0  01:46           0        2.23       0.011
  YS02001596           JUNCTION      0.00   317.98     0  01:23           0        2.23      -0.015
  YS02001600           JUNCTION      0.00   318.01     0  02:16           0        2.23       0.023
  YS02001601           JUNCTION    593.33   910.93     0  01:25        3.05        5.28       0.014
  YS02001602           JUNCTION      0.00   575.30     0  01:12           0        3.59       0.014
  YS02001605           JUNCTION      0.00   575.39     0  01:12           0        3.48       0.020
  YS02001607           JUNCTION      0.00   575.22     0  01:12           0        3.47       0.046
  YS02001610           JUNCTION      0.00   556.59     0  01:12           0        3.47       0.079
  YS02001613           JUNCTION      0.00   549.97     0  01:13           0        3.31       0.055
  YS02001616           JUNCTION      0.00   554.38     0  01:13           0        3.32       0.010
  YS02001619           JUNCTION    641.63   959.75     0  01:56        3.66        6.97       0.003
  YS02001622           JUNCTION      0.00   959.84     0  01:55           0        6.96      -0.008
  YS02001625           JUNCTION      0.00   960.21     0  01:55           0        6.96       0.156
  YS02001629           JUNCTION      0.00   959.76     0  01:55           0        6.92      -0.003
  YS02001633           JUNCTION    456.57  1337.03     0  01:19        2.33        9.26       0.035
  YS02001641           JUNCTION      0.00  1339.91     0  01:19           0        9.26       0.032
  YS02001644           JUNCTION    379.81  1694.68     0  01:19        1.92        11.2       0.027
  YS02001647           JUNCTION      0.00  1693.35     0  01:19           0        11.1       0.005
  YS02001649           JUNCTION      0.00  2067.59     0  01:39           0          13       0.004
  YS02001652           JUNCTION      0.00   574.78     0  01:33           0        1.87      -0.319
  YS02001655           JUNCTION      0.15   716.41     0  01:28     0.00443        1.86      -0.052
  YS02001658           JUNCTION      0.00   374.84     0  01:22           0        1.86       0.032
  YS02001661           JUNCTION      0.00   366.39     0  01:26           0        1.86       0.020
  YS02001664           JUNCTION    366.43   366.43     0  01:26        1.86        1.86      -0.010
  YS02001745           JUNCTION    211.14   211.14     0  01:25        1.05        1.05       0.020
  YS02001748           JUNCTION      0.04   212.25     0  01:24      0.0013        1.05       0.041
  YS02001751           JUNCTION      0.01   372.25     0  01:36    0.000317        1.05       0.132
  YS02001754           JUNCTION      0.26   430.48     0  01:33     0.00749        1.06      -0.333
  YS02001757           JUNCTION      0.00  3009.02     0  01:18           0        17.9       0.012
  YS02001759           JUNCTION    309.81   781.54     0  01:24        1.54        3.79      -0.019
  YS02001762           JUNCTION      0.00   490.01     0  01:37           0        2.26      -0.016
  YS02001765           JUNCTION      0.00   481.62     0  01:22           0        2.26      -0.014
  YS02001767           JUNCTION      0.54   495.87     0  01:19      0.0154        2.25      -0.007
  YS02001770           JUNCTION    447.53   495.11     0  01:41        2.24         2.3      -0.032
  YS02001774           JUNCTION      0.00   126.71     0  01:18           0       0.116       0.733
  YS02001779           JUNCTION      0.01   104.56     0  01:41    0.000144      0.0495      -0.258
  YS02001783           JUNCTION      0.00  1140.98     0  01:27           0        6.66       0.004
  YS02001784           JUNCTION      1.06  1142.11     0  01:21      0.0305        6.69       0.006
  YS02001786           JUNCTION      0.06  1141.83     0  01:27     0.00162        6.69       0.010
  YS02001788           JUNCTION      0.07  1142.03     0  01:27     0.00204        6.69       0.005
  YS02001790           JUNCTION      0.15  1153.40     0  01:27     0.00446        6.69       0.010
  YS02001791           JUNCTION      0.00  1271.81     0  01:25           0        6.69      -0.017
  YS02001793           JUNCTION      0.00  1219.54     0  01:31           0        6.69       0.003
  YS02001882           JUNCTION      0.00    68.90     0  01:11           0      0.0151       4.411
  YS02001884           JUNCTION      0.00   124.62     0  01:11           0       0.052       4.781
  YS02001887           JUNCTION    314.56   319.76     0  01:16        1.57         1.6       0.251
  YS02001890           JUNCTION      0.00   323.55     0  01:16           0        1.56       0.331
  YS02001895           JUNCTION      0.00   326.07     0  01:16           0        1.56       0.178
  YS02001898           JUNCTION      0.00   327.40     0  01:16           0        1.55      -0.046
  YS02001901           JUNCTION      0.00   328.50     0  01:16           0        1.56       0.215
  YS02001904           JUNCTION      0.00   326.00     0  01:16           0        1.58       0.160
  YS02001907           JUNCTION      0.00   999.02     0  01:22           0        4.69       0.380
  YS02001910           JUNCTION      0.00   685.59     0  01:22           0        3.11       0.231
  YS02001915           JUNCTION    384.61   685.03     0  01:22        1.94        3.12       0.042
  YS02001918           JUNCTION      0.00   306.39     0  01:22           0        1.18       0.018
  YS02001920           JUNCTION      2.87   304.94     0  01:22      0.0827        1.18       0.073
  YS02001923           JUNCTION      0.04   335.59     0  01:22     0.00109        1.09      -0.020
  YS02001926           JUNCTION      0.05   280.33     0  01:22      0.0015        1.09       0.032
  YS02001929           JUNCTION    211.03   211.03     0  01:27        1.09        1.09      -0.010
  YS02006553           JUNCTION      0.00   777.86     0  01:46           0        4.55       0.263
  YS02006556           JUNCTION      0.00   777.32     0  01:46           0        4.57       0.177
  YS02006558           JUNCTION    434.30  1142.24     0  01:27        2.18        6.71       0.041
  YS02006561           JUNCTION      0.00  1141.31     0  01:21           0        6.66       0.006
  YS02163301           JUNCTION      0.00   960.35     0  01:55           0        6.93       0.026
  YS02163601           JUNCTION      0.11  1337.19     0  01:19     0.00317        9.24       0.055
  YS02164001           JUNCTION      0.00  1337.26     0  01:19           0        9.25       0.027
  YSB1154              JUNCTION    194.93   194.93     0  01:26       0.976       0.976       0.133
  YSB1171              JUNCTION      0.00   343.77     0  01:24           0        1.72       0.353
  YSB1174              JUNCTION    147.95   147.95     0  01:25        0.73       0.731       0.164
  YSB6556              JUNCTION      0.00   195.28     0  01:25           0       0.979       0.127
  CC-1                 OUTFALL       0.00  3415.00     0  00:01           0        9.04       0.000
  CC-2                 OUTFALL       0.00  3415.00     0  00:01           0        5.78       0.000
  JK-1                 OUTFALL       0.00  5000.00     0  01:11           0         2.4       0.000
  JK-2                 OUTFALL       0.00  5000.00     0  01:11           0        1.61       0.000
  WSC                  OUTFALL       0.00  1477.02     0  01:26           0        16.4       0.000
  CC-storage           STORAGE       0.00  2923.66     0  01:27           0        20.1      -0.099
  JK-storage           STORAGE       0.00  1219.82     0  01:31           0        6.84      -0.335
  XR-storage           STORAGE     200.00   200.00     0  00:00        5.76        6.36       0.001
  
  
  **********************
  Node Surcharge Summary
  **********************
  
  Surcharging occurs when water rises above the top of the highest conduit.
  ---------------------------------------------------------------------
                                               Max. Height   Min. Depth
                                   Hours       Above Crown    Below Rim
  Node                 Type      Surcharged         Meters       Meters
  ---------------------------------------------------------------------
  HS02004478           JUNCTION        1.19          0.589        0.351
  HS02004479           JUNCTION        1.86          0.897        0.153
  HS02004480           JUNCTION        1.89          0.933        0.167
  HS02004770           JUNCTION        1.82          0.720        0.000
  HS02004777           JUNCTION        1.82          0.780        0.000
  HS02004785           JUNCTION        1.37          0.790        0.000
  HS02004788           JUNCTION        1.32          0.720        0.000
  HS02004792           JUNCTION        1.87          0.900        0.000
  HS02004799           JUNCTION        1.93          1.060        0.000
  HS02004802           JUNCTION        1.87          0.956        0.254
  HS02004807           JUNCTION        1.84          1.155        0.065
  HS02004817           JUNCTION        2.07          1.701        0.039
  HS02004824           JUNCTION        1.22          1.304        0.006
  HS02004830           JUNCTION        1.16          1.330        0.000
  HS02004837           JUNCTION        1.09          1.340        0.000
  HS02004842           JUNCTION        1.79          1.520        0.000
  HS02004848           JUNCTION        0.96          1.370        0.000
  HS02004852           JUNCTION        1.08          1.400        0.020
  HS02004856           JUNCTION        0.97          1.300        0.000
  HS02004862           JUNCTION        1.11          1.270        0.030
  HS02004870           JUNCTION        1.10          1.196        0.204
  HS02004876           JUNCTION        1.34          1.283        0.277
  HS02004881           JUNCTION        1.20          0.938        0.512
  HS02004901           JUNCTION        1.83          0.720        0.000
  WS02004401           JUNCTION        2.13          1.660        0.000
  WS02004402           JUNCTION        2.14          1.740        0.000
  WS02004403           JUNCTION        2.14          1.800        0.230
  WS02004404           JUNCTION        2.29          1.766        1.014
  WS02004405           JUNCTION        2.27          1.639        1.161
  WS02004406           JUNCTION        2.25          1.582        0.868
  WS02004409           JUNCTION        1.90          0.336        2.024
  WS02004410           JUNCTION        1.89          0.352        2.188
  WS02004411           JUNCTION        1.88          0.185        2.345
  WS02004412           JUNCTION        1.84          0.297        2.013
  WS02004413           JUNCTION        2.00          0.861        1.339
  WS02006109           JUNCTION        2.44          1.820        0.000
  WS02006110           JUNCTION        2.35          1.705        0.145
  WS02006111           JUNCTION        2.00          1.269        0.601
  WS02006112           JUNCTION        2.39          1.680        0.000
  WS02006113           JUNCTION        2.02          1.373        0.557
  WS02006115           JUNCTION        2.10          1.705        0.545
  WS02006116           JUNCTION        2.10          1.783        0.507
  WS02006228           JUNCTION        2.44          2.200        0.000
  WS02006229           JUNCTION        1.94          1.022        0.048
  WS02006230           JUNCTION        2.27          1.570        0.000
  WS02006231           JUNCTION        2.27          1.530        0.000
  WS02006232           JUNCTION        2.35          1.480        0.000
  WS02006234           JUNCTION        2.28          1.240        0.000
  WS02006235           JUNCTION        2.29          1.290        0.000
  WS02006238           JUNCTION        2.30          1.365        0.065
  WS02006239           JUNCTION        2.25          1.290        0.000
  WS02006240           JUNCTION        2.22          1.390        0.000
  WS02006242           JUNCTION        2.23          0.820        0.000
  WS02006243           JUNCTION        2.19          0.770        0.000
  WS02006245           JUNCTION        2.17          0.850        0.000
  WS02006247           JUNCTION        2.18          0.760        0.000
  WS02006248           JUNCTION        2.15          0.380        0.000
  WS02006249           JUNCTION        2.17          0.390        0.000
  WS02006251           JUNCTION        1.97          1.180        0.000
  WS02006252           JUNCTION        2.12          1.100        0.000
  WS02006253           JUNCTION        2.04          2.480        0.000
  WS02006256           JUNCTION        6.17          2.050        0.000
  WS02006280           JUNCTION        1.90          0.671        0.109
  WS02006284           JUNCTION        1.87          0.631        0.169
  WS02006287           JUNCTION        1.81          0.677        0.213
  YS02001580           JUNCTION        1.60          0.450        0.000
  YS02001583           JUNCTION        1.73          0.500        0.000
  YS02001586           JUNCTION        1.84          0.510        0.000
  YS02001590           JUNCTION        1.89          0.750        0.000
  YS02001593           JUNCTION        1.89          0.840        0.000
  YS02001596           JUNCTION        1.95          0.966        0.104
  YS02001600           JUNCTION        2.00          1.190        0.000
  YS02001601           JUNCTION        2.16          1.440        0.000
  YS02001602           JUNCTION        2.10          1.270        0.000
  YS02001605           JUNCTION        2.08          1.180        0.000
  YS02001607           JUNCTION        1.83          0.646        0.034
  YS02001610           JUNCTION        1.84          0.680        0.000
  YS02001613           JUNCTION        1.82          0.662        0.038
  YS02001616           JUNCTION        1.80          0.606        0.004
  YS02001619           JUNCTION        1.79          0.597        0.013
  YS02001622           JUNCTION        1.78          0.573        0.047
  YS02001625           JUNCTION        1.90          0.780        0.000
  YS02001629           JUNCTION        1.13          0.470        0.000
  YS02001633           JUNCTION        1.89          0.996        0.064
  YS02001641           JUNCTION        1.84          0.890        0.210
  YS02001644           JUNCTION        1.81          0.737        0.183
  YS02001647           JUNCTION        0.51          0.482        0.418
  YS02001649           JUNCTION        0.58          0.456        0.594
  YS02001652           JUNCTION        0.13          0.406        0.724
  YS02001655           JUNCTION        0.01          0.314        0.886
  YS02001757           JUNCTION        0.54          0.371        0.839
  YS02001759           JUNCTION        0.37          0.245        0.965
  YS02001762           JUNCTION        0.29          0.213        0.937
  YS02001765           JUNCTION        0.19          0.181        0.919
  YS02001767           JUNCTION        0.14          0.129        0.901
  YS02001770           JUNCTION        0.12          0.093        0.827
  YS02001774           JUNCTION        0.31          0.193        0.857
  YS02001783           JUNCTION        1.09          0.417        1.183
  YS02001784           JUNCTION        1.03          0.311        1.179
  YS02001786           JUNCTION        0.55          0.069        1.361
  YS02001882           JUNCTION        0.72          0.629        0.201
  YS02001884           JUNCTION        0.78          0.662        0.208
  YS02001887           JUNCTION        1.07          0.746        0.204
  YS02001890           JUNCTION        1.10          0.760        0.000
  YS02001895           JUNCTION        0.69          0.566        0.184
  YS02001898           JUNCTION        0.67          0.537        0.203
  YS02001901           JUNCTION        1.03          0.677        0.193
  YS02001904           JUNCTION        0.87          0.640        0.210
  YS02001907           JUNCTION        1.85          0.950        0.000
  YS02001910           JUNCTION        1.15          0.795        0.305
  YS02001915           JUNCTION        0.72          0.619        0.381
  YS02001918           JUNCTION        0.52          0.307        0.503
  YS02001920           JUNCTION        0.55          0.389        0.751
  YS02006553           JUNCTION        1.86          0.962        0.228
  YS02006556           JUNCTION        1.32          0.868        0.482
  YS02006558           JUNCTION        1.30          0.839        0.561
  YS02006561           JUNCTION        0.46          0.079        1.071
  YS02163301           JUNCTION        1.89          0.917        0.113
  YS02163601           JUNCTION        1.91          1.055        0.025
  YS02164001           JUNCTION        1.85          0.967        0.133
  YSB1154              JUNCTION        1.97          1.277        0.123
  YSB1171              JUNCTION        1.97          1.100        0.000
  YSB1174              JUNCTION        1.95          1.141        0.109
  YSB6556              JUNCTION        1.92          1.100        0.000
  
  
  *********************
  Node Flooding Summary
  *********************
  
  Flooding refers to all water that overflows a node, whether it ponds or not.
  --------------------------------------------------------------------------
                                                             Total   Maximum
                                 Maximum   Time of Max       Flood    Ponded
                        Hours       Rate    Occurrence      Volume     Depth
  Node                 Flooded       LPS   days hr:min    10^6 ltr    Meters
  --------------------------------------------------------------------------
  HS02004770              0.66    148.28      0  01:27       0.175     0.000
  HS02004777              0.01     51.05      0  01:12       0.000     0.000
  HS02004785              0.01     64.20      0  01:12       0.000     0.000
  HS02004788              0.01     43.92      0  01:12       0.000     0.000
  HS02004792              0.61    429.75      0  01:27       0.548     0.000
  HS02004799              0.01      9.55      0  01:15       0.000     0.000
  HS02004830              0.01      3.79      0  01:15       0.000     0.000
  HS02004837              0.01    164.68      0  01:15       0.000     0.000
  HS02004842              0.01     88.46      0  01:15       0.000     0.000
  HS02004848              0.01    227.28      0  01:15       0.000     0.000
  HS02004856              0.01    119.27      0  01:15       0.000     0.000
  HS02004901              1.13    442.07      0  01:26       1.267     0.000
  WS02004401              0.01     57.97      0  01:11       0.000     0.000
  WS02004402              0.01     52.00      0  01:11       0.000     0.000
  WS02006109              1.03    132.74      0  01:26       0.236     0.000
  WS02006112              0.01    144.19      0  01:12       0.001     0.000
  WS02006228              0.01      0.39      0  01:46       0.000     0.000
  WS02006230              1.88    505.46      0  01:26       2.244     0.000
  WS02006231              0.01     76.51      0  01:09       0.000     0.000
  WS02006232              0.45    143.96      0  01:09       0.001     0.000
  WS02006234              1.90    128.44      0  01:40       0.466     0.000
  WS02006235              0.01     66.51      0  01:10       0.000     0.000
  WS02006239              0.01    581.44      0  01:10       0.001     0.000
  WS02006240              0.01    901.05      0  01:10       0.002     0.000
  WS02006242              1.94    785.64      0  01:10       0.908     0.000
  WS02006243              0.01    287.14      0  01:10       0.003     0.000
  WS02006245              0.01    162.73      0  01:10       0.000     0.000
  WS02006247              0.01    183.18      0  01:10       0.000     0.000
  WS02006248              2.01    363.38      0  01:14       2.380     0.000
  WS02006249              2.07   1251.34      0  01:27       7.142     0.000
  WS02006251              0.01    780.26      0  01:11       0.006     0.000
  WS02006252              0.92   1962.63      0  01:19       2.680     0.000
  WS02006253              0.01    486.55      0  03:24       0.001     0.000
  WS02006256              0.57   1498.55      0  01:52       2.507     0.000
  YS02001580              0.01     12.35      0  01:13       0.000     0.000
  YS02001583              0.01     75.65      0  01:13       0.000     0.000
  YS02001586              0.98     74.17      0  01:13       0.125     0.000
  YS02001590              0.01     88.82      0  01:10       0.000     0.000
  YS02001593              0.01      0.31      0  02:54       0.000     0.000
  YS02001600              0.01      5.27      0  02:54       0.000     0.000
  YS02001601              1.79    513.07      0  01:26       1.687     0.000
  YS02001602              0.60     61.98      0  01:38       0.117     0.000
  YS02001605              0.01      0.31      0  01:36       0.000     0.000
  YS02001610              0.50    174.47      0  01:29       0.167     0.000
  YS02001625              0.26    110.13      0  01:27       0.038     0.000
  YS02001629              0.01     94.06      0  01:13       0.000     0.000
  YS02001890              0.01      6.74      0  01:20       0.000     0.000
  YS02001907              0.41    288.60      0  01:22       0.134     0.000
  YSB1171                 0.01     54.35      0  01:15       0.001     0.000
  YSB6556                 0.01     12.55      0  01:12       0.000     0.000
  
  
  **********************
  Storage Volume Summary
  **********************
  
  --------------------------------------------------------------------------------------------------
                         Average     Avg  Evap Exfil       Maximum     Max    Time of Max    Maximum
                          Volume    Pcnt  Pcnt  Pcnt        Volume    Pcnt     Occurrence    Outflow
  Storage Unit           1000 m3    Full  Loss  Loss       1000 m3    Full    days hr:min        LPS
  --------------------------------------------------------------------------------------------------
  CC-storage               1.449      23     0     0         2.229      35       0  00:00    8830.00
  JK-storage               0.061      21     0     0         0.212      73       0  01:59   11500.00
  XR-storage               0.947      66     0     0         1.111      77       0  08:00     380.00
  
  
  ***********************
  Outfall Loading Summary
  ***********************
  
  -----------------------------------------------------------
                         Flow       Avg       Max       Total
                         Freq      Flow      Flow      Volume
  Outfall Node           Pcnt       LPS       LPS    10^6 ltr
  -----------------------------------------------------------
  CC-1                  14.14   3366.18   3415.00       9.038
  CC-2                   9.47   3342.11   3415.00       5.781
  JK-1                   3.44   4043.48   5000.00       2.399
  JK-2                   1.83   4571.43   5000.00       1.613
  WSC                   99.94    801.62   1477.02      16.382
  -----------------------------------------------------------
  System                25.77  16124.82   1477.02      35.214
  
  
  ********************
  Link Flow Summary
  ********************
  
  -----------------------------------------------------------------------------
                                 Maximum  Time of Max   Maximum    Max/    Max/
                                  |Flow|   Occurrence   |Veloc|    Full    Full
  Link                 Type          LPS  days hr:min     m/sec    Flow   Depth
  -----------------------------------------------------------------------------
  1                    CONDUIT   1477.02     0  01:26      3.68    0.51    0.51
  HS02004478WS02006287 CONDUIT   2169.02     0  01:26      2.89    0.61    1.00
  HS02004479HS02004480 CONDUIT    370.94     0  01:12      0.66    0.36    1.00
  HS02004480HS02004478 CONDUIT   2077.54     0  01:13      2.97    8.75    1.00
  HS02004770HS02004777 CONDUIT    723.07     0  01:12      1.03    1.32    1.00
  HS02004777HS02004785 CONDUIT    731.95     0  01:11      1.12    0.90    1.00
  HS02004785HS02004788 CONDUIT    659.94     0  01:12      1.38    4.98    1.00
  HS02004788HS02004792 CONDUIT    873.13     0  01:12      1.46    0.58    1.00
  HS02004792HS02004799 CONDUIT   1631.99     0  01:12      2.33    1.00    1.00
  HS02004799HS02004480 CONDUIT   1761.44     0  01:13      2.52    2.23    1.00
  HS02004802HS02004478 CONDUIT    403.62     0  01:27      0.74    0.36    1.00
  HS02004807HS02004802 CONDUIT    403.25     0  01:28      0.63    0.77    1.00
  HS02004817HS02004807 CONDUIT    421.52     0  01:12      0.60    0.25    1.00
  HS02004817HS02004824 CONDUIT    422.52     0  01:12      0.61    0.19    1.00
  HS02004824HS02004830 CONDUIT    621.91     0  01:12      0.94    0.81    1.00
  HS02004830HS02004837 CONDUIT    598.82     0  01:13      0.90    0.60    1.00
  HS02004837HS02004842 CONDUIT    695.28     0  01:13      1.00    0.42    1.00
  HS02004842HS02004848 CONDUIT    695.75     0  01:13      1.11    0.41    1.00
  HS02004848HS02004852 CONDUIT    892.51     0  01:15      1.57    1.01    1.00
  HS02004852HS02004856 CONDUIT    884.93     0  01:15      1.43    1.01    1.00
  HS02004856HS02004862 CONDUIT    926.86     0  01:14      1.57    0.92    1.00
  HS02004862HS02004870 CONDUIT   1001.72     0  02:21      1.77    1.08    1.00
  HS02004870HS02004876 CONDUIT   1032.79     0  02:21      1.80    0.69    1.00
  HS02004876HS02004881 CONDUIT   1138.89     0  01:15      2.65   12.11    1.00
  HS02004881HS02006253 CONDUIT   1203.50     0  02:08      2.92    0.24    1.00
  HS02004901HS02004770 CONDUIT    265.79     0  01:49      0.38    1.00    1.00
  WS02001211WS02001212 CONDUIT    305.07     0  01:21      0.54    0.23    0.71
  WS02001212WS02001213 CONDUIT    337.55     0  01:22      1.04    0.52    0.60
  WS02001213WS02003059 CONDUIT    293.55     0  01:20      0.47    0.48    0.91
  WS02003059WS02003060 CONDUIT    368.65     0  01:16      0.67    0.24    0.82
  WS02003060WS02003069 CONDUIT   1489.19     0  01:23      2.23    0.58    0.60
  WS02003066WSF200     CONDUIT   1251.96     0  01:18      3.61    0.21    0.38
  WS02003067WS02003066 CONDUIT   1253.05     0  01:20      2.00    0.40    0.57
  WS02003069WS02003072 CONDUIT   1480.25     0  01:24      1.89    0.71    0.65
  WS02003072WS02003073 CONDUIT   1476.50     0  01:25      2.04    3.19    0.61
  WS02004138WS02004139 CONDUIT    192.30     0  00:29      2.16    0.04    0.43
  WS02004139WS02001211 CONDUIT    348.41     0  01:19      0.54    0.44    0.62
  WS02004401WS02004402 CONDUIT   1272.54     0  01:12      1.62    1.53    1.00
  WS02004402WS02004403 CONDUIT   1286.99     0  01:12      1.64    1.85    1.00
  WS02004403WS02004404 CONDUIT   1302.96     0  01:12      1.66    0.94    1.00
  WS02004404WS02004405 CONDUIT   1327.00     0  01:12      1.69   13.00    1.00
  WS02004405WS02004406 CONDUIT   1375.43     0  01:12      1.75    2.71    1.00
  WS02004406WS02004407 CONDUIT   1389.98     0  01:12      2.31    0.62    0.92
  WS02004407WS02004409 CONDUIT   1356.46     0  01:12      2.80    0.48    0.92
  WS02004409WS02004410 CONDUIT   1378.34     0  01:12      2.34    1.78    1.00
  WS02004410WS02004411 CONDUIT   1359.60     0  01:13      2.53    1.86    1.00
  WS02004411WS02004412 CONDUIT   1297.75     0  01:14      2.50    1.84    1.00
  WS02004412WS02004413 CONDUIT   1245.62     0  01:26      2.38    0.83    1.00
  WS02004413WS02003067 CONDUIT   1245.55     0  01:26      1.95    0.53    0.76
  WS02006109WS02006110 CONDUIT   1295.47     0  01:11      2.58    2.49    1.00
  WS02006110WS02006113 CONDUIT   1293.37     0  01:11      2.57    1.18    1.00
  WS02006111WS02006112 CONDUIT   1282.90     0  01:11      2.55    0.61    1.00
  WS02006112WS02006115 CONDUIT   1402.37     0  01:11      1.79    0.83    1.00
  WS02006113WS02006111 CONDUIT   1289.50     0  01:11      2.84    1.55    1.00
  WS02006115WS02006116 CONDUIT   1398.14     0  01:11      1.78    1.79    1.00
  WS02006116WS02004401 CONDUIT   1368.24     0  01:11      1.75    1.89    1.00
  WS02006228WS02006109 CONDUIT   1295.96     0  01:11      2.58    5.66    1.00
  WS02006229WS02006228 CONDUIT   1298.14     0  01:11      2.58    4.30    1.00
  WS02006230WS02006229 CONDUIT    947.72     0  01:26      2.46   21.09    1.00
  WS02006231WS02006230 CONDUIT    650.72     0  01:09      1.70    9.87    1.00
  WS02006232WS02006231 CONDUIT    632.48     0  01:09      1.64    1.33    1.00
  WS02006234WS02006232 CONDUIT    632.55     0  01:09      1.88    1.28    1.00
  WS02006235WS02006234 CONDUIT    634.45     0  01:10      1.66    6.69    1.00
  WS02006238WS02006235 CONDUIT    633.52     0  01:10      1.97    1.41    1.00
  WS02006239WS02006238 CONDUIT    659.11     0  01:10      1.93    2.11    1.00
  WS02006240WS02006239 CONDUIT    629.95     0  01:10      1.67    1.98    1.00
  WS02006242WS02006240 CONDUIT    415.21     0  01:21      1.08    1.65    1.00
  WS02006243WS02006242 CONDUIT    443.68     0  01:10      1.41    0.95    1.00
  WS02006245WS02006243 CONDUIT    567.15     0  01:10      1.55    1.68    1.00
  WS02006247WS02006245 CONDUIT    667.56     0  01:10      1.83    5.29    1.00
  WS02006248WS02006247 CONDUIT    703.42     0  01:10      1.83    1.53    1.00
  WS02006249WS02006248 CONDUIT    720.95     0  01:10      1.88    3.95    1.00
  WS02006251WS02006249 CONDUIT   1323.79     0  01:15      3.44    3.82    1.00
  WS02006252WS02006251 CONDUIT   1003.24     0  03:22    >50.00    3.68    1.00
  WS02006253WS02006251 CONDUIT   1220.57     0  01:15      3.17    3.66    1.00
  WS02006256WS02006235 CONDUIT    288.93     0  00:00      4.23    3.06    1.00
  WS02006280WS02006229 CONDUIT   2169.19     0  01:27      5.27    0.46    1.00
  WS02006284WS02006280 CONDUIT   2168.56     0  01:26      3.32    0.91    1.00
  WS02006287WS02006284 CONDUIT   2168.45     0  01:26      3.09    1.00    1.00
  WSF200WS02003060     CONDUIT   1277.69     0  01:19      3.26    0.28    0.50
  YS02001580YS02001583 CONDUIT     97.05     0  01:13      0.65    0.38    1.00
  YS02001583YS02001586 CONDUIT    130.34     0  01:12      0.58    0.20    1.00
  YS02001586YS02001590 CONDUIT    318.38     0  01:46      1.29    0.56    1.00
  YS02001590YS02001593 CONDUIT    318.19     0  01:46      1.13    2.00    1.00
  YS02001593YS02001596 CONDUIT    317.98     0  01:23      1.74    0.50    1.00
  YS02001596YS02001600 CONDUIT    318.01     0  02:16      1.26    0.62    1.00
  YS02001600YS02001601 CONDUIT    318.03     0  01:46      1.12    0.55    1.00
  YS02001601YS02001602 CONDUIT    575.30     0  01:12      2.03    2.08    1.00
  YS02001602YS02001605 CONDUIT    575.39     0  01:12      2.04   12.18    1.00
  YS02001605YS02001607 CONDUIT    575.22     0  01:12      2.03    3.15    1.00
  YS02001607YS02001610 CONDUIT    556.59     0  01:12      0.82    0.53    1.00
  YS02001610YS02001613 CONDUIT    549.97     0  01:13      0.76    0.63    1.00
  YS02001613YS02001616 CONDUIT    554.38     0  01:13      0.82    0.48    1.00
  YS02001616YS02001619 CONDUIT    533.75     0  01:13      0.85    0.93    1.00
  YS02001619YS02001622 CONDUIT    959.84     0  01:55      1.79    1.41    1.00
  YS02001622YS02001625 CONDUIT    960.21     0  01:55      1.22    0.51    1.00
  YS02001625YS02001629 CONDUIT    959.76     0  01:55      1.22    0.46    1.00
  YS02001629YS02163301 CONDUIT    960.35     0  01:55      1.22    1.18    1.00
  YS02001633YS02163601 CONDUIT   1337.08     0  01:19      1.70    1.40    1.00
  YS02001641YS02001644 CONDUIT   1339.14     0  01:19      1.71    4.33    1.00
  YS02001644YS02001647 CONDUIT   1693.35     0  01:19      2.20    0.99    1.00
  YS02001647YS02001649 CONDUIT   1710.11     0  01:19      2.38    0.90    1.00
  YS02001649YS02001757 CONDUIT   2063.66     0  01:39      2.66    1.25    1.00
  YS02001652YS02001649 CONDUIT    491.60     0  01:27      1.35    0.24    1.00
  YS02001655YS02001652 CONDUIT    574.78     0  01:33      1.79    0.28    1.00
  YS02001658YS02001655 CONDUIT    716.26     0  01:28      1.95    0.30    0.74
  YS02001661YS02001658 CONDUIT    374.84     0  01:22      2.20    0.15    0.45
  YS02001664YS02001661 CONDUIT    366.39     0  01:26      2.06    0.11    0.28
  YS02001745YS02001748 CONDUIT    212.21     0  01:24      1.98    0.08    0.29
  YS02001748YS02001751 CONDUIT    326.26     0  01:30      1.65    0.16    0.57
  YS02001751YS02001754 CONDUIT    430.22     0  01:33      1.62    0.21    0.77
  YS02001754YS02001757 CONDUIT    372.16     0  01:31      1.06    0.15    0.99
  YS02001757CaochengTiaoxuchi CONDUIT   2923.66     0  01:27      4.63    1.27    0.87
  YS02001759YS02001757 CONDUIT    781.14     0  01:24      1.32    0.56    1.00
  YS02001762YS02001759 CONDUIT    487.17     0  01:37      0.74    0.56    1.00
  YS02001765YS02001762 CONDUIT    490.01     0  01:37      0.85    0.46    1.00
  YS02001767YS02001765 CONDUIT    481.62     0  01:22      0.96    0.61    1.00
  YS02001770YS02001767 CONDUIT    495.34     0  01:19      0.93    1.96    1.00
  YS02001774YS02001770 CONDUIT    116.83     0  01:41      0.73    0.07    1.00
  YS02001779YS02001774 CONDUIT    104.55     0  01:41      0.21    0.05    0.97
  YS02001783YS02001784 CONDUIT   1141.05     0  01:21      2.27    1.57    1.00
  YS02001784YS02001785 CONDUIT   1141.77     0  01:27      2.27    2.66    1.00
  YS02001786YS02001788 CONDUIT   1141.96     0  01:27      2.45    2.20    0.88
  YS02001788YS02001790 CONDUIT   1153.25     0  01:27      2.69    0.85    0.83
  YS02001790YS02001791 CONDUIT   1271.81     0  01:25      3.41    1.38    0.70
  YS02001791YS02001793 CONDUIT   1219.54     0  01:31      6.75    0.52    0.40
  YS02001793JiankangQianchi CONDUIT   1219.82     0  01:31      2.45    0.10    0.61
  YS02001882YS02001884 CONDUIT     68.90     0  01:11      0.41    0.08    1.00
  YS02001884YS02001887 CONDUIT    124.62     0  01:11      0.36    0.17    1.00
  YS02001887YS02001890 CONDUIT    323.55     0  01:16      0.43    0.55    1.00
  YS02001890YS02001895 CONDUIT    326.07     0  01:16      0.46    0.15    1.00
  YS02001895YS02001898 CONDUIT    327.40     0  01:16      0.69    0.57    1.00
  YS02001898YS02001901 CONDUIT    328.50     0  01:16      0.58    0.21    1.00
  YS02001901YS02001904 CONDUIT    326.00     0  01:16      0.64    0.51    1.00
  YS02001904YS02001907 CONDUIT    326.31     0  01:16      0.42    0.11    1.00
  YS02001907YS02006553 CONDUIT    777.86     0  01:46      0.86    0.92    1.00
  YS02001910YS02001907 CONDUIT    685.62     0  01:22      0.87    0.39    1.00
  YS02001915YS02001910 CONDUIT    685.59     0  01:22      1.14    0.34    1.00
  YS02001918YS02001915 CONDUIT    307.12     0  01:22      0.45    0.17    1.00
  YS02001920YS02001918 CONDUIT    306.39     0  01:22      0.72    0.30    1.00
  YS02001923YS02001920 CONDUIT    302.07     0  01:22      0.83    0.14    1.00
  YS02001926YS02001923 CONDUIT    335.55     0  01:22      0.94    0.48    0.95
  YS02001929YS02001926 CONDUIT    280.28     0  01:22      1.05    0.13    0.83
  YS02006553YS02006556 CONDUIT    777.32     0  01:46      0.99    0.66    1.00
  YS02006556YS02006558 CONDUIT    781.04     0  01:46      0.99    0.62    1.00
  YS02006558YS02006561 CONDUIT   1141.31     0  01:21      4.04    2.52    1.00
  YS02006561YS02001783 CONDUIT   1140.98     0  01:27      2.27    0.59    1.00
  YS02163301YS02001633 CONDUIT    960.04     0  01:55      1.22    0.90    1.00
  YS02163601YS02164001 CONDUIT   1337.26     0  01:19      1.70    1.18    1.00
  YS02164001YS02001641 CONDUIT   1339.91     0  01:19      1.71    1.83    1.00
  YSB1154YSB6556       CONDUIT    195.28     0  01:25      0.51    0.35    1.00
  YSB1171HS02004479    CONDUIT    348.95     0  01:12      0.69    0.23    1.00
  YSB1174YSB1171       CONDUIT    148.36     0  01:24      0.39    0.23    1.00
  YSB6556YSB1171       CONDUIT    195.52     0  01:24      0.51    0.20    1.00
  CC-R1                PUMP      3415.00     0  00:01              5.00
  CC-R2                PUMP      3415.00     0  00:01              5.00
  CC-S1                PUMP      1000.00     0  01:07              5.00
  CC-S2                PUMP      1000.00     0  01:16              5.00
  JK-R1                PUMP      5000.00     0  01:11              5.00
  JK-R2                PUMP      5000.00     0  01:11              5.00
  JK-S                 PUMP      1500.00     0  00:06              5.00
  XR-1                 PUMP        95.00     0  00:00              1.00
  XR-2                 PUMP        95.00     0  00:00              1.00
  XR-3                 PUMP        95.00     0  00:00              1.00
  XR-4                 PUMP        95.00     0  00:00              1.00
  
  
  ***************************
  Flow Classification Summary
  ***************************
  
  -------------------------------------------------------------------------------------
                      Adjusted    ---------- Fraction of Time in Flow Class ---------- 
                       /Actual         Up    Down  Sub   Sup   Up    Down  Norm  Inlet 
  Conduit               Length    Dry  Dry   Dry   Crit  Crit  Crit  Crit  Ltd   Ctrl  
  -------------------------------------------------------------------------------------
  1                       1.00   0.00  0.00  0.00  0.00  1.00  0.00  0.00  0.45  0.00
  HS02004478WS02006287    1.00   0.06  0.00  0.00  0.78  0.16  0.00  0.00  0.56  0.00
  HS02004479HS02004480    1.00   0.02  0.00  0.00  0.98  0.00  0.00  0.00  0.09  0.00
  HS02004480HS02004478    1.00   0.06  0.00  0.00  0.74  0.00  0.00  0.21  0.00  0.00
  HS02004770HS02004777    1.00   0.00  0.06  0.00  0.94  0.00  0.00  0.00  0.00  0.00
  HS02004777HS02004785    1.00   0.00  0.00  0.00  1.00  0.00  0.00  0.00  0.09  0.00
  HS02004785HS02004788    1.00   0.00  0.00  0.00  1.00  0.00  0.00  0.00  0.00  0.00
  HS02004788HS02004792    1.00   0.00  0.00  0.00  0.99  0.01  0.00  0.00  0.75  0.00
  HS02004792HS02004799    1.00   0.00  0.00  0.00  0.99  0.01  0.00  0.00  0.73  0.00
  HS02004799HS02004480    1.00   0.00  0.02  0.00  0.94  0.00  0.04  0.00  0.00  0.00
  HS02004802HS02004478    1.00   0.06  0.00  0.00  0.94  0.00  0.00  0.00  0.00  0.00
  HS02004807HS02004802    1.00   0.06  0.00  0.00  0.94  0.00  0.00  0.00  0.00  0.00
  HS02004817HS02004807    1.00   0.00  0.06  0.00  0.94  0.00  0.00  0.00  0.01  0.00
  HS02004817HS02004824    1.00   0.00  0.00  0.00  1.00  0.00  0.00  0.00  0.73  0.00
  HS02004824HS02004830    1.00   0.00  0.00  0.00  1.00  0.00  0.00  0.00  0.00  0.00
  HS02004830HS02004837    1.00   0.00  0.00  0.00  1.00  0.00  0.00  0.00  0.73  0.00
  HS02004837HS02004842    1.00   0.00  0.00  0.00  1.00  0.00  0.00  0.00  0.11  0.00
  HS02004842HS02004848    1.00   0.00  0.06  0.00  0.94  0.00  0.00  0.00  0.52  0.00
  HS02004848HS02004852    1.00   0.06  0.00  0.00  0.94  0.00  0.00  0.00  0.61  0.00
  HS02004852HS02004856    1.00   0.06  0.00  0.00  0.94  0.00  0.00  0.00  0.60  0.00
  HS02004856HS02004862    1.00   0.00  0.06  0.00  0.94  0.00  0.00  0.00  0.63  0.00
  HS02004862HS02004870    1.00   0.00  0.00  0.00  1.00  0.00  0.00  0.00  0.01  0.00
  HS02004870HS02004876    1.00   0.00  0.00  0.00  0.99  0.00  0.00  0.00  0.71  0.00
  HS02004876HS02004881    1.00   0.01  0.00  0.00  0.84  0.15  0.00  0.00  0.00  0.00
  HS02004881HS02006253    1.00   0.03  0.00  0.00  0.49  0.03  0.00  0.45  0.09  0.00
  HS02004901HS02004770    1.00   0.06  0.00  0.00  0.94  0.00  0.00  0.00  0.00  0.00
  WS02001211WS02001212    1.00   0.00  0.02  0.00  0.98  0.00  0.00  0.00  0.00  0.00
  WS02001212WS02001213    1.00   0.02  0.00  0.00  0.55  0.00  0.43  0.00  0.00  0.00
  WS02001213WS02003059    1.00   0.00  0.00  0.00  0.99  0.00  0.00  0.00  0.00  0.00
  WS02003059WS02003060    1.00   0.00  0.00  0.00  1.00  0.00  0.00  0.00  0.03  0.00
  WS02003060WS02003069    1.00   0.00  0.00  0.00  0.99  0.01  0.00  0.00  0.51  0.00
  WS02003066WSF200        1.00   0.10  0.00  0.00  0.00  0.90  0.00  0.00  0.55  0.00
  WS02003067WS02003066    1.00   0.09  0.00  0.00  0.90  0.00  0.00  0.00  0.00  0.00
  WS02003069WS02003072    1.00   0.00  0.00  0.00  1.00  0.00  0.00  0.00  0.64  0.00
  WS02003072WS02003073    1.00   0.00  0.00  0.00  0.00  0.00  0.00  1.00  0.00  0.00
  WS02004138WS02004139    1.00   0.00  0.00  0.00  0.98  0.00  0.00  0.01  0.98  0.00
  WS02004139WS02001211    1.00   0.00  0.00  0.00  0.99  0.00  0.00  0.00  0.00  0.00
  WS02004401WS02004402    1.00   0.03  0.00  0.00  0.97  0.00  0.00  0.00  0.02  0.00
  WS02004402WS02004403    1.00   0.03  0.00  0.00  0.97  0.00  0.00  0.00  0.00  0.00
  WS02004403WS02004404    1.00   0.00  0.03  0.00  0.97  0.00  0.00  0.00  0.03  0.00
  WS02004404WS02004405    1.00   0.00  0.00  0.00  1.00  0.00  0.00  0.00  0.00  0.00
  WS02004405WS02004406    1.00   0.00  0.00  0.00  1.00  0.00  0.00  0.00  0.04  0.00
  WS02004406WS02004407    1.00   0.00  0.08  0.00  0.92  0.00  0.00  0.00  0.00  0.00
  WS02004407WS02004409    1.00   0.08  0.00  0.00  0.91  0.01  0.00  0.00  0.61  0.00
  WS02004409WS02004410    1.00   0.08  0.00  0.00  0.91  0.00  0.00  0.00  0.00  0.00
  WS02004410WS02004411    1.00   0.09  0.00  0.00  0.91  0.00  0.00  0.00  0.00  0.00
  WS02004411WS02004412    1.00   0.09  0.00  0.00  0.91  0.00  0.00  0.00  0.00  0.00
  WS02004412WS02004413    1.00   0.09  0.00  0.00  0.91  0.00  0.00  0.00  0.00  0.00
  WS02004413WS02003067    1.00   0.09  0.00  0.00  0.00  0.00  0.91  0.00  0.00  0.00
  WS02006109WS02006110    1.00   0.00  0.01  0.00  0.99  0.00  0.01  0.00  0.00  0.00
  WS02006110WS02006113    1.00   0.01  0.01  0.00  0.98  0.00  0.00  0.00  0.00  0.00
  WS02006111WS02006112    1.00   0.02  0.00  0.00  0.98  0.00  0.00  0.00  0.68  0.00
  WS02006112WS02006115    1.00   0.02  0.01  0.00  0.97  0.00  0.00  0.00  0.00  0.00
  WS02006113WS02006111    1.00   0.02  0.00  0.00  0.45  0.54  0.00  0.00  0.05  0.00
  WS02006115WS02006116    1.00   0.03  0.00  0.00  0.94  0.00  0.00  0.03  0.00  0.00
  WS02006116WS02004401    1.00   0.03  0.00  0.00  0.97  0.00  0.00  0.00  0.01  0.00
  WS02006228WS02006109    1.00   0.00  0.00  0.00  1.00  0.00  0.00  0.00  0.00  0.00
  WS02006229WS02006228    1.00   0.00  0.00  0.00  0.99  0.00  0.00  0.01  0.00  0.00
  WS02006230WS02006229    1.00   0.00  0.00  0.00  0.99  0.00  0.00  0.01  0.03  0.00
  WS02006231WS02006230    1.00   0.00  0.00  0.00  0.56  0.00  0.43  0.00  0.00  0.00
  WS02006232WS02006231    1.00   0.00  0.00  0.00  1.00  0.00  0.00  0.00  0.00  0.00
  WS02006234WS02006232    1.00   0.00  0.00  0.00  1.00  0.00  0.00  0.00  0.08  0.00
  WS02006235WS02006234    1.00   0.00  0.00  0.00  0.87  0.00  0.13  0.00  0.00  0.00
  WS02006238WS02006235    1.00   0.00  0.00  0.00  1.00  0.00  0.00  0.00  0.00  0.00
  WS02006239WS02006238    1.00   0.00  0.00  0.00  1.00  0.00  0.00  0.00  0.24  0.00
  WS02006240WS02006239    1.00   0.00  0.00  0.00  0.70  0.00  0.00  0.29  0.02  0.00
  WS02006242WS02006240    1.00   0.00  0.00  0.00  0.99  0.00  0.01  0.00  0.00  0.00
  WS02006243WS02006242    1.00   0.00  0.00  0.00  0.98  0.00  0.00  0.01  0.66  0.00
  WS02006245WS02006243    1.00   0.00  0.00  0.00  0.91  0.00  0.00  0.09  0.00  0.00
  WS02006247WS02006245    1.00   0.00  0.00  0.00  0.97  0.00  0.00  0.02  0.00  0.00
  WS02006248WS02006247    1.00   0.00  0.00  0.00  0.99  0.00  0.00  0.01  0.58  0.00
  WS02006249WS02006248    1.00   0.00  0.00  0.00  0.61  0.00  0.39  0.00  0.00  0.00
  WS02006251WS02006249    1.00   0.00  0.00  0.00  1.00  0.00  0.00  0.00  0.62  0.00
  WS02006252WS02006251    1.00   0.30  0.20  0.00  0.45  0.01  0.05  0.00  0.00  0.00
  WS02006253WS02006251    1.00   0.00  0.00  0.00  0.98  0.00  0.02  0.00  0.00  0.00
  WS02006256WS02006235    1.00   0.00  0.00  0.00  0.99  0.01  0.00  0.00  0.00  0.00
  WS02006280WS02006229    1.00   0.06  0.00  0.00  0.41  0.04  0.00  0.49  0.00  0.00
  WS02006284WS02006280    1.00   0.06  0.00  0.00  0.40  0.00  0.00  0.54  0.00  0.00
  WS02006287WS02006284    1.00   0.05  0.01  0.00  0.69  0.23  0.00  0.01  0.61  0.00
  WSF200WS02003060        1.00   0.00  0.10  0.00  0.38  0.52  0.00  0.00  0.52  0.00
  YS02001580YS02001583    1.00   0.08  0.36  0.00  0.55  0.00  0.00  0.00  0.61  0.00
  YS02001583YS02001586    1.00   0.26  0.14  0.00  0.60  0.00  0.00  0.00  0.62  0.00
  YS02001586YS02001590    1.00   0.06  0.00  0.00  0.67  0.02  0.00  0.25  0.23  0.00
  YS02001590YS02001593    1.00   0.06  0.00  0.00  0.41  0.00  0.53  0.00  0.00  0.00
  YS02001593YS02001596    1.00   0.06  0.00  0.00  0.42  0.01  0.00  0.52  0.01  0.00
  YS02001596YS02001600    1.00   0.06  0.00  0.00  0.47  0.01  0.00  0.46  0.02  0.00
  YS02001600YS02001601    1.00   0.06  0.00  0.00  0.94  0.00  0.00  0.00  0.56  0.00
  YS02001601YS02001602    1.00   0.06  0.00  0.00  0.94  0.00  0.00  0.00  0.00  0.00
  YS02001602YS02001605    1.00   0.06  0.00  0.00  0.94  0.00  0.00  0.00  0.00  0.00
  YS02001605YS02001607    1.00   0.06  0.00  0.00  0.94  0.00  0.00  0.00  0.00  0.00
  YS02001607YS02001610    1.00   0.06  0.00  0.00  0.94  0.00  0.00  0.00  0.00  0.00
  YS02001610YS02001613    1.00   0.06  0.00  0.00  0.94  0.00  0.00  0.00  0.00  0.00
  YS02001613YS02001616    1.00   0.06  0.00  0.00  0.94  0.00  0.00  0.00  0.00  0.00
  YS02001616YS02001619    1.00   0.06  0.00  0.00  0.94  0.00  0.00  0.00  0.00  0.00
  YS02001619YS02001622    1.00   0.06  0.00  0.00  0.94  0.01  0.00  0.00  0.32  0.00
  YS02001622YS02001625    1.00   0.06  0.00  0.00  0.94  0.00  0.00  0.00  0.01  0.00
  YS02001625YS02001629    1.00   0.06  0.01  0.00  0.43  0.00  0.51  0.00  0.00  0.00
  YS02001629YS02163301    1.00   0.06  0.00  0.00  0.94  0.00  0.00  0.00  0.00  0.00
  YS02001633YS02163601    1.00   0.00  0.01  0.00  0.99  0.00  0.00  0.00  0.12  0.00
  YS02001641YS02001644    1.00   0.00  0.01  0.00  0.99  0.00  0.00  0.00  0.00  0.00
  YS02001644YS02001647    1.00   0.00  0.06  0.00  0.94  0.00  0.00  0.00  0.00  0.00
  YS02001647YS02001649    1.00   0.00  0.06  0.00  0.64  0.30  0.00  0.00  0.55  0.00
  YS02001649YS02001757    1.00   0.00  0.00  0.00  0.67  0.33  0.00  0.00  0.49  0.00
  YS02001652YS02001649    1.00   0.00  0.00  0.00  0.99  0.01  0.00  0.00  0.68  0.00
  YS02001655YS02001652    1.00   0.00  0.00  0.00  0.46  0.01  0.00  0.53  0.05  0.00
  YS02001658YS02001655    1.00   0.00  0.06  0.00  0.60  0.34  0.00  0.00  0.71  0.00
  YS02001661YS02001658    1.00   0.06  0.00  0.00  0.34  0.61  0.00  0.00  0.79  0.00
  YS02001664YS02001661    1.00   0.06  0.00  0.00  0.52  0.42  0.00  0.00  0.87  0.00
  YS02001745YS02001748    1.00   0.00  0.00  0.00  0.02  0.06  0.00  0.93  0.04  0.00
  YS02001748YS02001751    1.00   0.00  0.00  0.00  0.67  0.33  0.00  0.00  0.85  0.00
  YS02001751YS02001754    1.00   0.00  0.00  0.00  0.40  0.01  0.00  0.59  0.11  0.00
  YS02001754YS02001757    1.00   0.00  0.00  0.00  1.00  0.00  0.00  0.00  0.74  0.00
  YS02001757CaochengTiaoxuchi    1.00   0.00  0.00  0.00  0.54  0.46  0.00  0.00  0.89  0.00
  YS02001759YS02001757    1.00   0.00  0.00  0.00  1.00  0.00  0.00  0.00  0.59  0.00
  YS02001762YS02001759    1.00   0.00  0.00  0.00  1.00  0.00  0.00  0.00  0.02  0.00
  YS02001765YS02001762    1.00   0.00  0.00  0.00  1.00  0.00  0.00  0.00  0.68  0.00
  YS02001767YS02001765    1.00   0.00  0.00  0.00  1.00  0.00  0.00  0.00  0.00  0.00
  YS02001770YS02001767    1.00   0.00  0.00  0.00  1.00  0.00  0.00  0.00  0.00  0.00
  YS02001774YS02001770    1.00   0.00  0.05  0.00  0.79  0.00  0.15  0.00  0.00  0.00
  YS02001779YS02001774    1.00   0.00  0.00  0.00  1.00  0.00  0.00  0.00  0.72  0.00
  YS02001783YS02001784    1.00   0.00  0.06  0.00  0.94  0.00  0.00  0.00  0.55  0.00
  YS02001784YS02001785    1.00   0.00  0.00  0.00  1.00  0.00  0.00  0.00  0.12  0.00
  YS02001786YS02001788    1.00   0.00  0.00  0.00  0.66  0.34  0.00  0.00  0.00  0.00
  YS02001788YS02001790    1.00   0.00  0.00  0.00  0.13  0.87  0.00  0.00  0.74  0.00
  YS02001790YS02001791    1.00   0.00  0.00  0.00  0.01  0.99  0.00  0.00  0.15  0.00
  YS02001791YS02001793    1.00   0.00  0.00  0.00  0.00  1.00  0.00  0.00  0.01  0.00
  YS02001793JiankangQianchi    1.00   0.00  0.00  0.00  0.90  0.10  0.00  0.00  1.00  0.00
  YS02001882YS02001884    1.00   0.06  0.00  0.00  0.94  0.00  0.00  0.00  0.00  0.00
  YS02001884YS02001887    1.00   0.03  0.02  0.00  0.95  0.00  0.00  0.00  0.00  0.00
  YS02001887YS02001890    1.00   0.00  0.00  0.00  0.98  0.00  0.02  0.00  0.00  0.00
  YS02001890YS02001895    1.00   0.00  0.06  0.00  0.94  0.00  0.00  0.00  0.00  0.00
  YS02001895YS02001898    1.00   0.06  0.00  0.00  0.93  0.00  0.01  0.00  0.00  0.00
  YS02001898YS02001901    1.00   0.06  0.00  0.00  0.94  0.00  0.00  0.00  0.00  0.00
  YS02001901YS02001904    1.00   0.06  0.00  0.00  0.94  0.00  0.00  0.00  0.00  0.00
  YS02001904YS02001907    1.00   0.00  0.06  0.00  0.94  0.00  0.00  0.00  0.00  0.00
  YS02001907YS02006553    1.00   0.00  0.01  0.00  0.98  0.00  0.00  0.00  0.00  0.00
  YS02001910YS02001907    1.00   0.00  0.00  0.00  0.98  0.00  0.00  0.02  0.10  0.00
  YS02001915YS02001910    1.00   0.00  0.00  0.00  0.99  0.01  0.00  0.00  0.11  0.00
  YS02001918YS02001915    1.00   0.00  0.00  0.00  0.98  0.01  0.00  0.00  0.63  0.00
  YS02001920YS02001918    1.00   0.00  0.00  0.00  1.00  0.00  0.00  0.00  0.00  0.00
  YS02001923YS02001920    1.00   0.00  0.00  0.00  1.00  0.00  0.00  0.00  0.85  0.00
  YS02001926YS02001923    1.00   0.00  0.04  0.00  0.16  0.00  0.81  0.00  0.00  0.00
  YS02001929YS02001926    1.00   0.00  0.06  0.00  0.94  0.00  0.00  0.00  0.80  0.00
  YS02006553YS02006556    1.00   0.01  0.00  0.00  0.99  0.00  0.00  0.00  0.03  0.00
  YS02006556YS02006558    1.00   0.00  0.00  0.00  1.00  0.00  0.00  0.00  0.00  0.00
  YS02006558YS02006561    1.00   0.06  0.00  0.00  0.13  0.81  0.00  0.00  0.10  0.00
  YS02006561YS02001783    1.00   0.06  0.00  0.00  0.28  0.66  0.00  0.00  0.61  0.00
  YS02163301YS02001633    1.00   0.00  0.06  0.00  0.94  0.00  0.00  0.00  0.00  0.00
  YS02163601YS02164001    1.00   0.00  0.04  0.00  0.96  0.00  0.00  0.00  0.00  0.00
  YS02164001YS02001641    1.00   0.01  0.03  0.00  0.96  0.00  0.00  0.00  0.05  0.00
  YSB1154YSB6556          1.00   0.06  0.00  0.00  0.94  0.00  0.00  0.00  0.00  0.00
  YSB1171HS02004479       1.00   0.02  0.00  0.00  0.97  0.00  0.00  0.01  0.08  0.00
  YSB1174YSB1171          1.00   0.03  0.02  0.00  0.95  0.00  0.00  0.00  0.00  0.00
  YSB6556YSB1171          1.00   0.03  0.03  0.00  0.94  0.00  0.00  0.00  0.00  0.00
  
  
  *************************
  Conduit Surcharge Summary
  *************************
  
  ----------------------------------------------------------------------------
                                                           Hours        Hours 
                         --------- Hours Full --------   Above Full   Capacity
  Conduit                Both Ends  Upstream  Dnstream   Normal Flow   Limited
  ----------------------------------------------------------------------------
  HS02004478WS02006287        1.19      1.19      1.85      0.01         0.01
  HS02004479HS02004480        1.89      1.89      1.91      0.01         0.01
  HS02004480HS02004478        1.81      1.89      1.81      2.26         1.81
  HS02004770HS02004777        1.82      1.82      1.82      0.32         0.31
  HS02004777HS02004785        1.37      1.37      1.82      0.01         0.01
  HS02004785HS02004788        1.32      1.37      1.32      2.11         1.32
  HS02004788HS02004792        1.32      1.32      1.87      0.01         0.01
  HS02004792HS02004799        1.87      1.87      1.93      0.01         0.01
  HS02004799HS02004480        1.89      1.89      1.93      1.96         0.01
  HS02004802HS02004478        1.82      1.82      1.89      0.01         0.01
  HS02004807HS02004802        1.84      1.84      1.87      0.01         0.04
  HS02004817HS02004807        1.84      1.84      2.07      0.01         0.01
  HS02004817HS02004824        1.22      1.22      2.07      0.01         0.01
  HS02004824HS02004830        1.16      1.16      1.22      0.01         0.01
  HS02004830HS02004837        1.09      1.09      1.16      0.01         0.01
  HS02004837HS02004842        1.09      1.09      1.79      0.01         0.01
  HS02004842HS02004848        0.96      0.96      1.79      0.01         0.01
  HS02004848HS02004852        0.96      0.96      1.08      0.01         0.02
  HS02004852HS02004856        1.08      1.08      1.11      0.01         0.03
  HS02004856HS02004862        0.97      0.97      1.11      0.01         0.02
  HS02004862HS02004870        1.09      1.11      1.10      0.03         0.16
  HS02004870HS02004876        1.10      1.10      1.33      0.01         0.01
  HS02004876HS02004881        1.19      1.33      1.19      2.15         1.19
  HS02004881HS02006253        1.19      1.19      2.04      0.01         0.01
  HS02004901HS02004770        1.82      1.82      1.83      0.19         0.01
  WS02003072WS02003073        0.01      0.01      0.01      2.64         0.01
  WS02004401WS02004402        2.13      2.13      2.14      2.09         2.04
  WS02004402WS02004403        2.14      2.14      2.14      2.15         2.12
  WS02004403WS02004404        2.14      2.14      2.29      0.01         0.02
  WS02004404WS02004405        2.27      2.29      2.27      3.13         2.27
  WS02004405WS02004406        2.25      2.27      2.25      2.37         2.25
  WS02004406WS02004407        0.01      0.01      2.25      0.01         0.01
  WS02004407WS02004409        0.01      0.01      1.90      0.01         0.01
  WS02004409WS02004410        1.89      1.90      1.89      2.10         1.89
  WS02004410WS02004411        1.88      1.89      1.88      2.12         1.88
  WS02004411WS02004412        1.84      1.88      1.84      2.13         1.84
  WS02004412WS02004413        1.84      1.84      2.00      0.01         0.01
  WS02004413WS02003067        0.01      0.01      2.00      0.01         0.01
  WS02006109WS02006110        2.35      2.35      2.46      2.36         0.01
  WS02006110WS02006113        2.02      2.02      2.45      0.87         0.01
  WS02006111WS02006112        2.00      2.00      2.56      0.01         0.01
  WS02006112WS02006115        2.10      2.10      2.39      0.01         0.01
  WS02006113WS02006111        2.01      2.02      2.01      2.09         2.01
  WS02006115WS02006116        2.10      2.10      2.10      2.13         2.08
  WS02006116WS02004401        2.13      2.13      2.13      2.14         2.10
  WS02006228WS02006109        2.44      2.46      2.44      2.60         2.44
  WS02006229WS02006228        2.44      2.45      2.44      2.52         2.44
  WS02006230WS02006229        2.47      2.48      2.47      3.24         0.46
  WS02006231WS02006230        2.26      2.27      2.29      2.70         1.98
  WS02006232WS02006231        2.27      2.27      2.35      0.03         0.35
  WS02006234WS02006232        2.29      2.29      2.35      0.02         0.01
  WS02006235WS02006234        2.27      2.28      2.29      2.50         1.95
  WS02006238WS02006235        2.30      2.30      2.31      0.01         0.61
  WS02006239WS02006238        2.28      2.29      2.30      1.99         0.05
  WS02006240WS02006239        2.23      2.23      2.25      1.98         0.05
  WS02006242WS02006240        2.21      2.22      2.26      2.06         1.91
  WS02006243WS02006242        2.19      2.19      2.23      0.01         0.01
  WS02006245WS02006243        2.18      2.18      2.19      0.04         0.04
  WS02006247WS02006245        2.17      2.19      2.17      2.32         0.19
  WS02006248WS02006247        2.16      2.16      2.18      0.01         0.02
  WS02006249WS02006248        2.15      2.15      2.17      0.26         0.01
  WS02006251WS02006249        2.15      2.18      2.17      2.03         1.93
  WS02006252WS02006251        2.02      5.94      2.09      0.44         0.03
  WS02006253WS02006251        2.14      2.17      2.17      1.98         0.08
  WS02006256WS02006235        2.51      2.55      6.08      0.10         0.03
  WS02006280WS02006229        1.91      1.91      1.94      0.01         0.01
  WS02006284WS02006280        1.87      1.87      1.90      0.01         0.01
  WS02006287WS02006284        1.81      1.81      1.88      0.08         0.10
  YS02001580YS02001583        1.60      1.60      1.79      0.01         0.01
  YS02001583YS02001586        1.73      1.73      1.84      0.01         0.01
  YS02001586YS02001590        1.85      1.85      1.89      0.01         0.01
  YS02001590YS02001593        1.89      1.89      1.90      1.90         0.01
  YS02001593YS02001596        1.90      1.90      1.95      0.01         0.01
  YS02001596YS02001600        1.97      1.97      2.00      0.01         0.01
  YS02001600YS02001601        2.03      2.03      2.16      0.01         0.01
  YS02001601YS02001602        2.10      2.10      2.18      2.03         0.01
  YS02001602YS02001605        2.08      2.08      2.10      2.62         0.01
  YS02001605YS02001607        2.06      2.08      2.06      2.13         2.06
  YS02001607YS02001610        1.83      1.83      1.84      0.01         0.01
  YS02001610YS02001613        1.82      1.82      1.84      0.01         0.01
  YS02001613YS02001616        1.80      1.80      1.82      0.01         0.01
  YS02001616YS02001619        1.79      1.79      1.80      0.01         0.01
  YS02001619YS02001622        1.78      1.79      1.78      1.91         1.76
  YS02001622YS02001625        1.78      1.78      1.90      0.01         0.01
  YS02001625YS02001629        1.13      1.13      1.90      0.01         0.01
  YS02001629YS02163301        1.88      1.88      1.89      1.66         1.59
  YS02001633YS02163601        1.90      1.90      1.91      1.83         1.83
  YS02001641YS02001644        1.81      1.84      1.81      2.18         1.81
  YS02001644YS02001647        0.51      0.51      1.81      0.01         0.01
  YS02001647YS02001649        0.51      0.51      0.58      0.01         0.01
  YS02001649YS02001757        0.54      0.58      0.54      1.13         0.52
  YS02001652YS02001649        0.22      0.22      0.58      0.01         0.01
  YS02001655YS02001652        0.01      0.01      0.13      0.01         0.01
  YS02001658YS02001655        0.01      0.01      0.01      0.01         0.01
  YS02001754YS02001757        0.01      0.01      0.54      0.01         0.01
  YS02001757CaochengTiaoxuchi        0.01      0.54      0.01      1.10         0.01
  YS02001759YS02001757        0.37      0.37      0.54      0.01         0.01
  YS02001762YS02001759        0.29      0.29      0.37      0.01         0.01
  YS02001765YS02001762        0.19      0.19      0.29      0.01         0.01
  YS02001767YS02001765        0.14      0.14      0.19      0.01         0.01
  YS02001770YS02001767        0.14      0.18      0.14      1.24         0.11
  YS02001774YS02001770        0.12      0.12      0.30      0.01         0.01
  YS02001779YS02001774        0.01      0.01      0.30      0.01         0.01
  YS02001783YS02001784        1.03      1.09      1.03      1.40         1.03
  YS02001784YS02001785        0.55      1.03      0.55      1.93         0.55
  YS02001786YS02001788        0.01      0.55      0.01      1.88         0.01
  YS02001790YS02001791        0.01      0.01      0.01      0.89         0.01
  YS02001793JiankangQianchi        0.01      0.01      3.92      0.01         0.01
  YS02001882YS02001884        0.72      0.72      0.78      0.01         0.01
  YS02001884YS02001887        1.03      1.03      1.07      0.01         0.01
  YS02001887YS02001890        1.10      1.10      1.12      0.01         0.01
  YS02001890YS02001895        0.69      0.69      1.15      0.01         0.01
  YS02001895YS02001898        0.67      0.67      0.69      0.01         0.01
  YS02001898YS02001901        0.70      0.70      1.03      0.01         0.01
  YS02001901YS02001904        0.87      0.87      1.03      0.01         0.01
  YS02001904YS02001907        0.87      0.87      1.86      0.01         0.01
  YS02001907YS02006553        1.93      1.93      1.96      0.01         0.01
  YS02001910YS02001907        1.15      1.15      1.85      0.01         0.01
  YS02001915YS02001910        0.72      0.72      1.15      0.01         0.01
  YS02001918YS02001915        0.52      0.52      0.72      0.01         0.01
  YS02001920YS02001918        0.52      0.52      0.55      0.01         0.01
  YS02001923YS02001920        0.43      0.43      0.55      0.01         0.01
  YS02006553YS02006556        1.32      1.32      1.86      0.01         0.01
  YS02006556YS02006558        1.74      1.74      1.87      0.01         0.01
  YS02006558YS02006561        0.59      1.30      0.59      1.91         0.59
  YS02006561YS02001783        0.46      0.46      1.09      0.01         0.01
  YS02163301YS02001633        1.89      1.89      1.91      0.01         0.06
  YS02163601YS02164001        1.85      1.85      1.91      1.41         0.01
  YS02164001YS02001641        1.84      1.85      1.84      1.95         1.84
  YSB1154YSB6556              1.92      1.92      1.97      0.01         0.01
  YSB1171HS02004479           1.86      1.86      1.97      0.01         0.01
  YSB1174YSB1171              1.95      1.95      2.03      0.01         0.01
  YSB6556YSB1171              1.92      1.92      2.08      0.01         0.01
  
  
  ***************
  Pumping Summary
  ***************
  
  ---------------------------------------------------------------------------------------------------------
                                                  Min       Avg       Max     Total     Power    % Time Off
                        Percent   Number of      Flow      Flow      Flow    Volume     Usage    Pump Curve
  Pump                 Utilized   Start-Ups       LPS       LPS       LPS  10^6 ltr     Kw-hr    Low   High
  ---------------------------------------------------------------------------------------------------------
  CC-R1                    9.35          66      0.00   3366.18   3415.00     9.033    149.07    0.0  100.0
  CC-R2                    6.04          72      0.00   3342.11   3415.00     5.772     94.97    0.0  100.0
  CC-S1                    9.11          52      0.00    986.72   1000.00     2.576     25.72    0.0    0.0
  CC-S2                    4.80          27      0.00    975.70   1000.00     1.335     13.33    0.0    0.0
  JK-R1                    2.10          74      0.00   4043.48   5000.00     2.408     15.13    0.0    0.0
  JK-R2                    1.27          56      0.00   4571.43   5000.00     1.635      9.57    0.0    0.0
  JK-S                     7.09          84      0.00   1377.49   1500.00     2.806     52.92    0.0    0.0
  XR-1                    97.90           2      0.00     95.00     95.00     2.679      9.61    0.0    0.0
  XR-2                    93.96           2      0.00     95.00     95.00     2.571      8.78    0.0    0.0
  XR-3                     0.00           1      0.00     95.00     95.00     0.000      0.00    0.0    0.0
  XR-4                     0.00           1      0.00     95.00     95.00     0.000      0.00    0.0    0.0
  

  Analysis begun on:  Mon Jul 24 20:37:54 2023
  Analysis ended on:  Mon Jul 24 20:38:34 2023
  Total elapsed time: 00:00:40