
  OWA STORM WATER MANAGEMENT MODEL - VERSION v5.1.14 (OWA 2022-07-31)
  --------------------------------------------------------------

  WARNING 04: minimum elevation drop used for Conduit WS02004404WS02004405
  WARNING 03: negative offset ignored for Link YS02001904YS02001907
  
  *********************************************************
  NOTE: The summary statistics displayed in this report are
  based on results found at every computational time step,  
  not just on results from each reporting time step.
  *********************************************************
  
  ****************
  Analysis Options
  ****************
  Flow Units ............... LPS
  Process Models:
    Rainfall/Runoff ........ YES
    RDII ................... NO
    Snowmelt ............... NO
    Groundwater ............ NO
    Flow Routing ........... YES
    Ponding Allowed ........ NO
    Water Quality .......... NO
  Infiltration Method ...... HORTON
  Flow Routing Method ...... DYNWAVE
  Surcharge Method ......... EXTRAN
  Starting Date ............ 08/28/2015 08:00:00
  Ending Date .............. 08/28/2015 16:00:00
  Antecedent Dry Days ...... 8.0
  Report Time Step ......... 00:01:00
  Wet Time Step ............ 00:01:00
  Dry Time Step ............ 00:01:00
  Routing Time Step ........ 30.00 sec
  Variable Time Step ....... YES
  Maximum Trials ........... 8
  Number of Threads ........ 4
  Head Tolerance ........... 0.001500 m
  
  
  **************************        Volume         Depth
  Runoff Quantity Continuity     hectare-m            mm
  **************************     ---------       -------
  Initial LID Storage ......         0.072         1.184
  Total Precipitation ......         2.643        43.630
  Evaporation Loss .........         0.000         0.000
  Infiltration Loss ........         0.203         3.353
  Surface Runoff ...........         1.906        31.470
  Final Storage ............         0.606         9.995
  Continuity Error (%) .....        -0.009
  
  
  **************************        Volume        Volume
  Flow Routing Continuity        hectare-m      10^6 ltr
  **************************     ---------     ---------
  Dry Weather Inflow .......         0.630         6.296
  Wet Weather Inflow .......         1.906        19.056
  Groundwater Inflow .......         0.000         0.000
  RDII Inflow ..............         0.000         0.000
  External Inflow ..........         0.105         1.045
  External Outflow .........         2.306        23.065
  Flooding Loss ............         0.327         3.271
  Evaporation Loss .........         0.000         0.000
  Exfiltration Loss ........         0.000         0.000
  Initial Stored Volume ....         0.303         3.031
  Final Stored Volume ......         0.320         3.198
  Continuity Error (%) .....        -0.356
  
  
  *************************
  Highest Continuity Errors
  *************************
  Node YS02001583 (-10.59%)
  Node HS02004842 (7.17%)
  Node YS02001774 (5.61%)
  Node YS02001884 (3.28%)
  Node WS02006256 (1.92%)
  
  
  ***************************
  Time-Step Critical Elements
  ***************************
  Link WS02006280WS02006229 (52.50%)
  Link YS02006556YS02006558 (11.36%)
  Link WS02006238WS02006235 (9.34%)
  Link WS02006252WS02006251 (5.98%)
  Link WS02004404WS02004405 (4.64%)
  
  
  ********************************
  Highest Flow Instability Indexes
  ********************************
  Link WS02004404WS02004405 (28)
  Link YS02006558YS02006561 (27)
  Link WS02004403WS02004404 (25)
  Link YS02001600YS02001601 (24)
  Link WS02004401WS02004402 (23)
  
  
  *************************
  Routing Time Step Summary
  *************************
  Minimum Time Step           :     0.01 sec
  Average Time Step           :     2.54 sec
  Maximum Time Step           :     7.99 sec
  Percent in Steady State     :    -0.00
  Average Iterations per Step :     4.10
  Percent Not Converging      :    25.95
  
  
  ***************************
  Subcatchment Runoff Summary
  ***************************
  
  ------------------------------------------------------------------------------------------------------------------------------
                            Total      Total      Total      Total     Imperv       Perv      Total       Total     Peak  Runoff
                           Precip      Runon       Evap      Infil     Runoff     Runoff     Runoff      Runoff   Runoff   Coeff
  Subcatchment                 mm         mm         mm         mm         mm         mm         mm    10^6 ltr      LPS
  ------------------------------------------------------------------------------------------------------------------------------
  sub0                      28.19       0.00       0.00       1.03      24.96       0.95      25.90        0.02     4.06   0.919
  sub1                      28.19       0.00       0.00       1.54      21.37       1.24      22.61        0.15    26.41   0.802
  sub10                     28.19       0.00       0.00       0.99      20.03       0.85      20.88        0.23    41.97   0.741
  sub11                     28.19       0.00       0.00       0.90      18.62       0.80      19.42        0.23    42.46   0.689
  sub12                     28.19       0.00       0.00       1.58      18.94       1.39      20.33        0.18    33.44   0.721
  sub14                     28.19       0.00       0.00       0.98      17.64       0.85      18.49        0.18    32.75   0.656
  sub15                     28.19       0.00       0.00       4.30      15.85       2.84      18.69        0.32    55.01   0.663
  sub16                     28.19       0.00       0.00       4.64      15.47       3.37      18.84        0.20    34.67   0.668
  sub17                     28.19       0.00       0.00       4.94      17.07       3.50      20.57        0.18    30.76   0.730
  sub2                      28.19       0.00       0.00       6.47      15.61       3.19      18.80        0.18    28.65   0.667
  sub22                     28.19       0.00       0.00       7.46      14.80       4.28      19.08        1.21   203.71   0.677
  sub23                     28.19       0.00       0.00       5.72      15.24       3.69      18.93        0.90   155.82   0.672
  sub3                      28.19       0.00       0.00       6.73      15.44       2.85      18.29        0.41    65.83   0.649
  sub4                      28.19       0.00       0.00       1.64      20.98       1.11      22.09        0.46    75.70   0.783
  sub5                      28.19       0.00       0.00       0.88      20.68       0.76      21.43        0.24    43.87   0.760
  sub60                     56.39       0.00       0.00       1.44      37.36       3.78      41.14        0.54   103.94   0.730
  sub61                     56.39       0.00       0.00       2.22      37.33       5.62      42.95        0.79   151.13   0.762
  sub62                     56.39       0.00       0.00       0.98      39.80       2.57      42.36        1.16   220.39   0.751
  sub63                     56.39       0.00       0.00       4.05      31.97       9.33      41.31        0.94   172.45   0.733
  sub64                     56.39       0.00       0.00       1.95      36.40       4.64      41.05        0.99   183.19   0.728
  sub65                     56.39       0.00       0.00       1.79      39.29       4.24      43.52        1.20   219.93   0.772
  sub66                     56.39       0.00       0.00       4.63      30.91       8.33      39.24        1.83   299.17   0.696
  sub67                     56.39       0.00       0.00       0.97      40.80       2.66      43.47        0.81   155.82   0.771
  sub68                     56.39       0.00       0.00       1.70      36.03       4.31      40.34        1.11   212.03   0.715
  sub69                     56.39       0.00       0.00       1.57      37.90       5.13      43.03        1.59   288.81   0.763
  sub7                      28.19       0.00       0.00       1.04      18.91       0.92      19.83        0.07    12.61   0.703
  sub70                     56.39       0.00       0.00       5.07      30.35      10.62      40.98        1.18   185.64   0.727
  sub71                     56.39       0.00       0.00       0.91      36.15       2.32      38.47        1.01   188.13   0.682
  sub72                     56.39       0.00       0.00       0.86      39.04       2.15      41.20        0.57   101.95   0.731
  sub8                      28.19       0.00       0.00       1.02      18.37       0.89      19.26        0.12    22.96   0.683
  sub9                      28.19       0.00       0.00       0.99      17.81       0.86      18.67        0.09    16.74   0.662
  

  ***********************
  LID Performance Summary
  ***********************

  --------------------------------------------------------------------------------------------------------------------
                                         Total      Evap     Infil   Surface    Drain    Initial     Final  Continuity
                                        Inflow      Loss      Loss   Outflow   Outflow   Storage   Storage       Error
  Subcatchment      LID Control             mm        mm        mm        mm        mm        mm        mm           %
  --------------------------------------------------------------------------------------------------------------------
  sub1              GreenRoof            28.19      0.00      0.00      0.00      0.00      7.05     35.24       -0.00
  sub10             GreenRoof            28.19      0.00      0.00      0.00      0.00      7.05     35.24       -0.00
  sub11             GreenRoof            28.19      0.00      0.00      0.00      0.00      7.05     35.24       -0.00
  sub12             GreenRoof            28.19      0.00      0.00      0.00      0.00      7.05     35.24       -0.00
  sub14             GreenRoof            28.19      0.00      0.00      0.00      0.00      7.05     35.24       -0.00
  sub15             GreenRoof            28.19      0.00      0.00      0.00      0.00      7.05     35.24       -0.00
  sub16             GreenRoof            28.19      0.00      0.00      0.00      0.00      7.05     35.24       -0.00
  sub17             GreenRoof            28.19      0.00      0.00      0.00      0.00      7.05     35.24       -0.00
  sub2              GreenRoof            28.19      0.00      0.00      0.00      0.00      7.05     35.24       -0.00
  sub22             GreenRoof            28.19      0.00      0.00      0.00      0.00      7.05     35.24       -0.00
  sub23             GreenRoof            28.19      0.00      0.00      0.00      0.00      7.05     35.24       -0.00
  sub3              GreenRoof            28.19      0.00      0.00      0.00      0.00      7.05     35.24       -0.00
  sub4              GreenRoof            28.19      0.00      0.00      0.00      0.00      7.05     35.24       -0.00
  sub5              GreenRoof            28.19      0.00      0.00      0.00      0.00      7.05     35.24       -0.00
  sub60             GreenRoof            56.39      0.00      0.00      0.00      0.00      7.05     63.44        0.00
  sub61             GreenRoof            56.39      0.00      0.00      0.00      0.00      7.05     63.44        0.00
  sub62             GreenRoof            56.39      0.00      0.00      0.00      0.00      7.05     63.44        0.00
  sub63             GreenRoof            56.39      0.00      0.00      0.00      0.00      7.05     63.44        0.00
  sub64             GreenRoof            56.39      0.00      0.00      0.00      0.00      7.05     63.44        0.00
  sub65             GreenRoof            56.39      0.00      0.00      0.00      0.00      7.05     63.44        0.00
  sub66             GreenRoof            56.39      0.00      0.00      0.00      0.00      7.05     63.44        0.00
  sub67             GreenRoof            56.39      0.00      0.00      0.00      0.00      7.05     63.44        0.00
  sub68             GreenRoof            56.39      0.00      0.00      0.00      0.00      7.05     63.44        0.00
  sub69             GreenRoof            56.39      0.00      0.00      0.00      0.00      7.05     63.44        0.00
  sub7              GreenRoof            28.19      0.00      0.00      0.00      0.00      7.05     35.24       -0.00
  sub70             GreenRoof            56.39      0.00      0.00      0.00      0.00      7.05     63.44        0.00
  sub71             GreenRoof            56.39      0.00      0.00      0.00      0.00      7.05     63.44        0.00
  sub72             GreenRoof            56.39      0.00      0.00      0.00      0.00      7.05     63.44        0.00
  sub8              GreenRoof            28.19      0.00      0.00      0.00      0.00      7.05     35.24       -0.00
  sub9              GreenRoof            28.19      0.00      0.00      0.00      0.00      7.05     35.24       -0.00
  
  ******************
  Node Depth Summary
  ******************
  
  ---------------------------------------------------------------------------------
                                 Average  Maximum  Maximum  Time of Max    Reported
                                   Depth    Depth      HGL   Occurrence   Max Depth
  Node                 Type       Meters   Meters   Meters  days hr:min      Meters
  ---------------------------------------------------------------------------------
  HS02004478           JUNCTION     0.14     0.29     9.52     0  02:07        0.29
  HS02004479           JUNCTION     0.23     0.43     9.63     0  02:07        0.43
  HS02004480           JUNCTION     0.20     0.39     9.63     0  02:07        0.39
  HS02004770           JUNCTION     0.21     0.37    10.21     0  02:07        0.37
  HS02004777           JUNCTION     0.23     0.40    10.20     0  02:07        0.40
  HS02004785           JUNCTION     0.12     0.25    10.15     0  02:07        0.25
  HS02004788           JUNCTION     0.08     0.16    10.06     0  02:07        0.16
  HS02004792           JUNCTION     0.11     0.23     9.75     0  02:07        0.23
  HS02004799           JUNCTION     0.25     0.48     9.69     0  02:07        0.48
  HS02004802           JUNCTION     0.25     0.41     9.54     0  02:08        0.41
  HS02004807           JUNCTION     0.21     0.38     9.55     0  02:08        0.38
  HS02004817           JUNCTION     0.52     0.71     9.56     0  02:07        0.71
  HS02004824           JUNCTION     0.06     0.14     9.55     0  02:08        0.14
  HS02004830           JUNCTION     0.07     0.11     9.58     0  02:08        0.11
  HS02004837           JUNCTION     0.05     0.09     9.67     0  02:07        0.09
  HS02004842           JUNCTION     0.35     0.40     9.67     0  02:07        0.40
  HS02004848           JUNCTION     0.03     0.07     9.67     0  02:07        0.07
  HS02004852           JUNCTION     0.04     0.08     9.59     0  02:07        0.08
  HS02004856           JUNCTION     0.10     0.15     9.58     0  02:07        0.15
  HS02004862           JUNCTION     0.05     0.11     9.50     0  02:07        0.11
  HS02004870           JUNCTION     0.04     0.09     9.38     0  02:07        0.09
  HS02004876           JUNCTION     0.10     0.34     9.37     0  02:01        0.30
  HS02004881           JUNCTION     0.05     0.27     9.30     0  01:32        0.26
  HS02004901           JUNCTION     0.22     0.38    10.21     0  02:07        0.38
  WS02001211           JUNCTION     0.64     0.72     5.56     0  02:07        0.72
  WS02001212           JUNCTION     0.38     0.48     5.54     0  02:14        0.48
  WS02001213           JUNCTION     0.60     0.77     5.53     0  02:14        0.77
  WS02003059           JUNCTION     0.67     0.84     5.53     0  02:14        0.84
  WS02003060           JUNCTION     0.39     0.58     5.52     0  02:13        0.58
  WS02003066           JUNCTION     0.23     0.39     5.94     0  02:03        0.39
  WS02003067           JUNCTION     0.56     0.83     6.15     0  02:03        0.83
  WS02003069           JUNCTION     0.44     0.66     5.25     0  02:14        0.66
  WS02003072           JUNCTION     0.50     0.71     5.08     0  02:14        0.71
  WS02003073           JUNCTION     0.30     0.44     4.51     0  02:15        0.44
  WS02004138           JUNCTION     0.13     0.14     7.39     0  00:29        0.14
  WS02004139           JUNCTION     0.57     0.66     5.57     0  02:16        0.66
  WS02004401           JUNCTION     0.76     1.41     7.41     0  01:28        1.26
  WS02004402           JUNCTION     0.78     1.35     7.31     0  01:35        1.25
  WS02004403           JUNCTION     0.78     1.34     7.27     0  01:28        1.22
  WS02004404           JUNCTION     0.85     1.43     7.28     0  01:28        1.26
  WS02004405           JUNCTION     0.84     1.41     7.26     0  01:28        1.23
  WS02004406           JUNCTION     0.83     1.50     7.33     0  01:28        1.18
  WS02004407           JUNCTION     0.23     0.41     6.72     0  02:02        0.40
  WS02004409           JUNCTION     0.53     0.99     6.76     0  02:03        0.98
  WS02004410           JUNCTION     0.54     0.97     6.69     0  02:03        0.96
  WS02004411           JUNCTION     0.55     0.95     6.63     0  02:03        0.94
  WS02004412           JUNCTION     0.56     0.92     6.56     0  02:12        0.92
  WS02004413           JUNCTION     0.70     1.03     6.50     0  02:12        1.03
  WS02006109           JUNCTION     0.89     1.81     8.43     0  02:01        1.75
  WS02006110           JUNCTION     0.83     1.62     8.21     0  02:01        1.53
  WS02006111           JUNCTION     0.38     1.12     7.82     0  02:01        0.94
  WS02006112           JUNCTION     0.96     1.73     7.61     0  01:36        1.60
  WS02006113           JUNCTION     0.42     1.11     8.00     0  01:36        0.99
  WS02006115           JUNCTION     0.68     1.51     7.64     0  01:28        1.26
  WS02006116           JUNCTION     0.75     1.52     7.56     0  01:28        1.30
  WS02006228           JUNCTION     0.94     1.97     8.62     0  02:01        1.95
  WS02006229           JUNCTION     0.95     2.04     8.73     0  02:01        2.03
  WS02006230           JUNCTION     0.92     2.04     8.78     0  01:25        1.99
  WS02006231           JUNCTION     0.64     1.73     8.85     0  01:35        1.62
  WS02006232           JUNCTION     0.74     1.97     9.01     0  01:26        1.71
  WS02006234           JUNCTION     0.64     1.96     9.12     0  01:26        1.65
  WS02006235           JUNCTION     0.66     2.00     9.16     0  01:26        1.74
  WS02006238           JUNCTION     0.68     2.11     9.26     0  01:26        1.76
  WS02006239           JUNCTION     0.63     2.03     9.24     0  01:26        1.69
  WS02006240           JUNCTION     0.59     2.10     9.39     0  01:26        1.70
  WS02006242           JUNCTION     0.63     1.55     8.82     0  01:26        1.55
  WS02006243           JUNCTION     0.53     1.48     8.90     0  01:26        1.48
  WS02006245           JUNCTION     0.52     1.56     9.04     0  01:26        1.56
  WS02006247           JUNCTION     0.52     1.47     8.97     0  01:26        1.47
  WS02006248           JUNCTION     0.47     1.10     8.69     0  01:25        1.10
  WS02006249           JUNCTION     0.49     1.09     8.69     0  01:25        1.09
  WS02006251           JUNCTION     0.51     2.21     9.88     0  01:30        1.60
  WS02006252           JUNCTION     0.31     1.50     9.74     0  00:00        1.50
  WS02006253           JUNCTION     0.55     3.52    11.16     0  01:25        1.66
  WS02006256           JUNCTION     0.99     2.35     9.28     0  00:00        2.35
  WS02006280           JUNCTION     0.15     0.34     8.61     0  02:05        0.34
  WS02006284           JUNCTION     0.47     0.66     9.06     0  02:08        0.66
  WS02006287           JUNCTION     0.21     0.40     9.36     0  02:07        0.40
  WSF200               JUNCTION     0.23     0.43     5.66     0  02:03        0.43
  YS02001580           JUNCTION     0.00     0.09     8.63     0  01:37        0.09
  YS02001583           JUNCTION     0.04     0.13     8.63     0  01:36        0.13
  YS02001586           JUNCTION     0.15     0.45     8.63     0  01:36        0.45
  YS02001590           JUNCTION     0.29     0.75     8.61     0  01:36        0.75
  YS02001593           JUNCTION     0.22     0.72     8.59     0  01:36        0.72
  YS02001596           JUNCTION     0.39     1.15     8.57     0  01:36        1.14
  YS02001600           JUNCTION     0.52     1.42     8.55     0  01:35        1.41
  YS02001601           JUNCTION     0.73     1.68     8.52     0  01:36        1.67
  YS02001602           JUNCTION     0.62     1.45     8.35     0  01:36        1.44
  YS02001605           JUNCTION     0.55     1.26     8.17     0  01:37        1.26
  YS02001607           JUNCTION     0.48     0.97     7.82     0  01:36        0.97
  YS02001610           JUNCTION     0.53     1.01     7.81     0  01:35        1.01
  YS02001613           JUNCTION     0.48     0.96     7.80     0  01:36        0.96
  YS02001616           JUNCTION     0.41     0.88     7.79     0  01:36        0.88
  YS02001619           JUNCTION     0.38     0.85     7.78     0  01:36        0.85
  YS02001622           JUNCTION     0.37     0.84     7.75     0  01:36        0.84
  YS02001625           JUNCTION     0.65     1.11     7.72     0  01:36        1.11
  YS02001629           JUNCTION     0.53     1.10     7.65     0  01:35        1.10
  YS02001633           JUNCTION     0.60     1.14     7.60     0  01:34        1.14
  YS02001641           JUNCTION     0.56     1.00     7.44     0  01:35        1.00
  YS02001644           JUNCTION     0.55     0.96     7.39     0  01:35        0.96
  YS02001647           JUNCTION     0.29     0.60     7.21     0  01:35        0.60
  YS02001649           JUNCTION     0.32     0.66     7.05     0  01:37        0.66
  YS02001652           JUNCTION     0.19     0.45     7.05     0  01:35        0.45
  YS02001655           JUNCTION     0.09     0.20     7.05     0  01:32        0.20
  YS02001658           JUNCTION     0.08     0.18     7.33     0  01:32        0.18
  YS02001661           JUNCTION     0.14     0.25     7.65     0  01:32        0.25
  YS02001664           JUNCTION     0.07     0.16     8.08     0  01:32        0.16
  YS02001745           JUNCTION     0.06     0.14     7.65     0  01:30        0.14
  YS02001748           JUNCTION     0.07     0.16     7.23     0  01:30        0.16
  YS02001751           JUNCTION     0.07     0.15     7.03     0  01:31        0.15
  YS02001754           JUNCTION     0.11     0.31     6.91     0  01:35        0.30
  YS02001757           JUNCTION     0.31     0.65     6.91     0  01:35        0.65
  YS02001759           JUNCTION     0.25     0.55     6.92     0  01:34        0.55
  YS02001762           JUNCTION     0.23     0.52     6.92     0  01:35        0.52
  YS02001765           JUNCTION     0.21     0.48     6.93     0  01:35        0.47
  YS02001767           JUNCTION     0.20     0.45     6.94     0  01:35        0.45
  YS02001770           JUNCTION     0.22     0.47     6.96     0  01:35        0.47
  YS02001774           JUNCTION     0.28     0.54     6.96     0  01:34        0.54
  YS02001779           JUNCTION     0.10     0.28     6.96     0  01:34        0.27
  YS02001783           JUNCTION     0.28     0.63     6.77     0  01:32        0.63
  YS02001784           JUNCTION     0.30     0.64     6.71     0  01:33        0.63
  YS02001786           JUNCTION     0.26     0.53     6.56     0  01:33        0.53
  YS02001788           JUNCTION     0.19     0.42     6.40     0  01:34        0.42
  YS02001790           JUNCTION     0.24     0.50     6.15     0  01:34        0.50
  YS02001791           JUNCTION     0.15     0.31     5.78     0  01:34        0.31
  YS02001793           JUNCTION     0.08     0.16     4.99     0  01:34        0.16
  YS02001882           JUNCTION     0.32     0.64     7.35     0  01:32        0.64
  YS02001884           JUNCTION     0.41     0.73     7.35     0  01:32        0.72
  YS02001887           JUNCTION     0.49     0.81     7.35     0  01:32        0.80
  YS02001890           JUNCTION     0.52     0.84     7.35     0  01:32        0.83
  YS02001895           JUNCTION     0.29     0.60     7.35     0  01:33        0.60
  YS02001898           JUNCTION     0.30     0.61     7.35     0  01:32        0.61
  YS02001901           JUNCTION     0.41     0.73     7.34     0  01:31        0.73
  YS02001904           JUNCTION     0.39     0.71     7.34     0  01:31        0.71
  YS02001907           JUNCTION     0.71     1.06     7.35     0  01:30        1.05
  YS02001910           JUNCTION     0.51     0.85     7.35     0  01:31        0.85
  YS02001915           JUNCTION     0.31     0.62     7.34     0  01:30        0.62
  YS02001918           JUNCTION     0.11     0.27     7.33     0  01:31        0.27
  YS02001920           JUNCTION     0.20     0.35     7.36     0  01:32        0.35
  YS02001923           JUNCTION     0.07     0.15     7.41     0  01:33        0.15
  YS02001926           JUNCTION     0.15     0.27     7.72     0  01:33        0.27
  YS02001929           JUNCTION     0.07     0.15     7.84     0  01:32        0.15
  YS02006553           JUNCTION     0.72     1.06     7.35     0  01:31        1.05
  YS02006556           JUNCTION     0.69     1.03     7.34     0  01:30        1.01
  YS02006558           JUNCTION     0.73     1.07     7.34     0  01:30        1.04
  YS02006561           JUNCTION     0.16     0.37     7.03     0  01:32        0.36
  YS02163301           JUNCTION     0.55     1.11     7.63     0  01:35        1.11
  YS02163601           JUNCTION     0.63     1.12     7.52     0  01:35        1.12
  YS02164001           JUNCTION     0.56     1.02     7.48     0  01:35        1.02
  YSB1154              JUNCTION     0.37     0.58     9.64     0  02:07        0.58
  YSB1171              JUNCTION     0.51     0.73     9.64     0  02:07        0.73
  YSB1174              JUNCTION     0.32     0.53     9.64     0  02:07        0.53
  YSB6556              JUNCTION     0.26     0.47     9.64     0  02:07        0.47
  CC-1                 OUTFALL      0.00     0.00     0.00     0  00:00        0.00
  CC-2                 OUTFALL      0.00     0.00     0.00     0  00:00        0.00
  JK-1                 OUTFALL      0.00     0.00     0.00     0  00:00        0.00
  JK-2                 OUTFALL      0.00     0.00     0.00     0  00:00        0.00
  WSC                  OUTFALL      0.30     0.44     1.11     0  02:15        0.44
  CC-storage           STORAGE      0.53     0.80     6.30     0  00:00        0.76
  JK-storage           STORAGE      1.60     4.20     5.00     0  02:01        4.17
  XR-storage           STORAGE      7.82     9.26     7.26     0  08:00        9.26
  
  
  *******************
  Node Inflow Summary
  *******************
  
  -------------------------------------------------------------------------------------------------
                                  Maximum  Maximum                  Lateral       Total        Flow
                                  Lateral    Total  Time of Max      Inflow      Inflow     Balance
                                   Inflow   Inflow   Occurrence      Volume      Volume       Error
  Node                 Type           LPS      LPS  days hr:min    10^6 ltr    10^6 ltr     Percent
  -------------------------------------------------------------------------------------------------
  HS02004478           JUNCTION      0.00   729.91     0  02:07           0        4.51       0.008
  HS02004479           JUNCTION      0.00    76.26     0  01:34           0        0.43       0.172
  HS02004480           JUNCTION      0.00   548.36     0  02:07           0        3.27       0.022
  HS02004770           JUNCTION    155.82   190.26     0  02:06       0.903         1.1       0.277
  HS02004777           JUNCTION      0.03   190.02     0  02:06    0.000864         1.1       0.476
  HS02004785           JUNCTION      0.15   190.05     0  02:07     0.00432         1.1       0.044
  HS02004788           JUNCTION     56.68   246.39     0  02:07        0.37        1.46       0.026
  HS02004792           JUNCTION    203.99   450.06     0  02:07        1.21        2.68       0.014
  HS02004799           JUNCTION     32.75   479.03     0  02:07       0.176        2.85       0.116
  HS02004802           JUNCTION      0.00   181.62     0  02:07           0        1.26       0.303
  HS02004807           JUNCTION     42.46   182.01     0  02:07       0.226        1.26       0.349
  HS02004817           JUNCTION      0.60   144.85     0  02:08      0.0173        1.05       1.613
  HS02004824           JUNCTION     75.75   144.38     0  02:07       0.462        1.03       0.052
  HS02004830           JUNCTION      0.15    68.88     0  02:07     0.00432       0.572       0.216
  HS02004837           JUNCTION     48.32    68.75     0  02:06       0.413       0.581       0.139
  HS02004842           JUNCTION      0.00    24.34     0  02:09           0       0.181       7.726
  HS02004848           JUNCTION     65.83    65.83     0  02:07       0.412       0.412       0.010
  HS02004852           JUNCTION      0.00    41.55     0  02:07           0       0.243       0.021
  HS02004856           JUNCTION     16.74    56.38     0  02:07      0.0898       0.333       0.428
  HS02004862           JUNCTION     28.85    85.19     0  02:07       0.181       0.513       0.032
  HS02004870           JUNCTION     22.96   105.54     0  02:07       0.123       0.636       0.016
  HS02004876           JUNCTION     26.41   169.42     0  02:00        0.15       0.793       0.070
  HS02004881           JUNCTION     12.61   436.42     0  02:25      0.0668       0.925       0.068
  HS02004901           JUNCTION     34.67    34.67     0  02:06       0.197       0.197       0.893
  WS02001211           JUNCTION      7.35   204.25     0  02:20       0.212        5.44       0.611
  WS02001212           JUNCTION      0.00   208.78     0  02:49           0        5.41       0.291
  WS02001213           JUNCTION      0.00   213.00     0  02:48           0        5.39       0.332
  WS02003059           JUNCTION      0.00   217.52     0  02:48           0        5.38       0.595
  WS02003060           JUNCTION     16.53  1168.81     0  02:13       0.476        12.7       0.115
  WS02003066           JUNCTION      0.00   961.58     0  02:03           0        6.85       0.021
  WS02003067           JUNCTION      0.00   959.25     0  02:04           0        6.86       0.064
  WS02003069           JUNCTION      0.32  1164.92     0  02:13     0.00922        12.7       0.122
  WS02003072           JUNCTION      0.00  1163.21     0  02:14           0        12.6       0.165
  WS02003073           JUNCTION      1.82  1164.75     0  02:15      0.0524        12.7       0.170
  WS02004138           JUNCTION      0.00   380.00     0  00:00           0        5.25       0.053
  WS02004139           JUNCTION      0.32   191.14     0  00:29     0.00924        5.26       0.509
  WS02004401           JUNCTION      0.00   973.18     0  02:02           0        6.96       0.152
  WS02004402           JUNCTION      0.00   973.65     0  02:02           0        6.95       0.153
  WS02004403           JUNCTION      0.00   974.32     0  02:02           0        6.94       0.149
  WS02004404           JUNCTION      0.16   974.96     0  02:02     0.00467        6.93       0.126
  WS02004405           JUNCTION      0.04   975.80     0  02:02      0.0011        6.93       0.185
  WS02004406           JUNCTION      0.00   976.87     0  02:02           0        6.91       0.307
  WS02004407           JUNCTION      0.00   977.77     0  02:02           0        6.89       0.022
  WS02004409           JUNCTION      0.00   973.39     0  02:02           0        6.89       0.047
  WS02004410           JUNCTION      0.00   963.49     0  02:12           0        6.89       0.070
  WS02004411           JUNCTION      0.00   957.57     0  02:12           0        6.88       0.088
  WS02004412           JUNCTION      0.00   958.53     0  02:03           0        6.88       0.115
  WS02004413           JUNCTION      0.00   959.10     0  02:03           0        6.87       0.201
  WS02006109           JUNCTION      1.23   942.96     0  02:02      0.0354        6.83       0.119
  WS02006110           JUNCTION      0.00   942.57     0  02:02           0        6.82       0.106
  WS02006111           JUNCTION      0.00   941.47     0  02:02           0        6.82       0.013
  WS02006112           JUNCTION     30.76   971.64     0  02:02       0.176        6.99       0.258
  WS02006113           JUNCTION      0.00   942.31     0  02:02           0        6.82       0.030
  WS02006115           JUNCTION      0.00   971.70     0  02:02           0        6.97       0.099
  WS02006116           JUNCTION      0.00   972.71     0  02:02           0        6.97       0.071
  WS02006228           JUNCTION      0.00   941.27     0  02:02           0         6.8       0.055
  WS02006229           JUNCTION      0.00  1015.21     0  02:01           0        6.83       0.114
  WS02006230           JUNCTION     10.28   471.57     0  03:17       0.296        2.36       0.356
  WS02006231           JUNCTION      0.00   486.87     0  03:17           0        2.04      -0.205
  WS02006232           JUNCTION      0.00   483.20     0  03:17           0        2.03       0.206
  WS02006234           JUNCTION      0.00   581.27     0  03:17           0        2.01      -0.312
  WS02006235           JUNCTION      0.00   598.21     0  03:16           0        2.07       0.270
  WS02006238           JUNCTION      0.00   533.97     0  03:16           0        1.71      -0.386
  WS02006239           JUNCTION      0.00   546.28     0  03:16           0        1.66      -0.313
  WS02006240           JUNCTION      0.00   602.14     0  03:16           0        1.64      -0.145
  WS02006242           JUNCTION      0.00   651.04     0  03:16           0        1.63      -0.381
  WS02006243           JUNCTION      0.00   732.20     0  01:26           0        1.63      -0.659
  WS02006245           JUNCTION      0.00   791.53     0  01:26           0        1.64       0.674
  WS02006247           JUNCTION      0.00   848.96     0  01:25           0        1.64      -0.319
  WS02006248           JUNCTION      0.00   876.38     0  01:25           0        1.68      -0.328
  WS02006249           JUNCTION      0.00   977.71     0  02:12           0        3.22       0.267
  WS02006251           JUNCTION      0.08  1196.84     0  01:25     0.00222        3.45      -0.072
  WS02006252           JUNCTION      0.00  2000.00     0  01:05           0        3.05      -1.349
  WS02006253           JUNCTION      4.06   752.04     0  02:25       0.021        1.14      -0.525
  WS02006256           JUNCTION      0.00  1500.00     0  00:20           0        1.34       1.953
  WS02006280           JUNCTION      0.00   730.15     0  02:08           0        4.51       0.005
  WS02006284           JUNCTION      0.10   730.10     0  02:08     0.00275        4.51       0.023
  WS02006287           JUNCTION      0.00   729.94     0  02:08           0        4.51       0.019
  WSF200               JUNCTION      0.00   963.00     0  02:03           0        6.85       0.011
  YS02001580           JUNCTION      0.00     4.44     0  01:34           0    0.000416       3.544
  YS02001583           JUNCTION      0.00     8.50     0  01:33           0     0.00162      -9.576
  YS02001586           JUNCTION    185.64   185.66     0  02:06        1.18        1.18       0.052
  YS02001590           JUNCTION      0.00   187.55     0  02:09           0        1.18      -0.034
  YS02001593           JUNCTION      0.00   189.76     0  02:11           0        1.18       0.012
  YS02001596           JUNCTION      0.00   193.09     0  02:13           0        1.18      -0.005
  YS02001600           JUNCTION      0.00   193.08     0  02:13           0        1.18       0.014
  YS02001601           JUNCTION    288.81   452.73     0  01:36        1.59        2.78       0.028
  YS02001602           JUNCTION      0.00   452.80     0  01:36           0        2.77       0.015
  YS02001605           JUNCTION      0.00   452.74     0  01:36           0        2.77       0.022
  YS02001607           JUNCTION      0.00   452.76     0  01:36           0        2.77       0.065
  YS02001610           JUNCTION      0.00   453.23     0  01:36           0        2.77       0.090
  YS02001613           JUNCTION      0.00   453.26     0  01:36           0        2.77       0.062
  YS02001616           JUNCTION      0.00   453.47     0  01:36           0        2.78       0.016
  YS02001619           JUNCTION    299.17   744.22     0  01:36        1.83         4.6      -0.002
  YS02001622           JUNCTION      0.00   744.87     0  01:36           0         4.6      -0.001
  YS02001625           JUNCTION      0.00   745.92     0  01:37           0         4.6       0.216
  YS02001629           JUNCTION      0.00   745.95     0  01:37           0        4.59       0.012
  YS02001633           JUNCTION    220.13   955.87     0  01:36         1.2         5.8       0.056
  YS02001641           JUNCTION      0.00   956.20     0  01:36           0         5.8       0.050
  YS02001644           JUNCTION    183.23  1130.96     0  01:35       0.987        6.78       0.047
  YS02001647           JUNCTION      0.00  1131.15     0  01:35           0        6.76       0.008
  YS02001649           JUNCTION      0.00  1302.97     0  01:35           0         7.7       0.007
  YS02001652           JUNCTION      0.00   172.51     0  01:32           0        0.94      -0.145
  YS02001655           JUNCTION      0.15   172.54     0  01:32     0.00443       0.941       0.109
  YS02001658           JUNCTION      0.00   172.41     0  01:32           0       0.937      -0.000
  YS02001661           JUNCTION      0.00   172.43     0  01:32           0       0.937       0.041
  YS02001664           JUNCTION    172.45   172.45     0  01:32       0.937       0.937      -0.014
  YS02001745           JUNCTION    103.94   103.94     0  01:31        0.54        0.54      -0.004
  YS02001748           JUNCTION      0.04   103.99     0  01:30      0.0013       0.542      -0.002
  YS02001751           JUNCTION      0.01   104.00     0  01:30    0.000317       0.542       0.069
  YS02001754           JUNCTION      0.26   104.25     0  01:31     0.00749       0.549      -0.109
  YS02001757           JUNCTION      0.00  1762.06     0  01:34           0        10.2       0.015
  YS02001759           JUNCTION    151.17   361.37     0  01:32       0.789        1.97      -0.010
  YS02001762           JUNCTION      0.00   212.07     0  01:34           0        1.18       0.016
  YS02001765           JUNCTION      0.00   215.99     0  01:33           0        1.18       0.016
  YS02001767           JUNCTION      0.54   216.50     0  01:33      0.0154        1.18       0.025
  YS02001770           JUNCTION    220.54   220.54     0  01:31        1.16        1.18      -0.022
  YS02001774           JUNCTION      0.00    34.97     0  01:08           0      0.0224       5.945
  YS02001779           JUNCTION      0.01    14.41     0  01:09    0.000144     0.00535       0.356
  YS02001783           JUNCTION      0.00   678.99     0  01:32           0        3.54       0.007
  YS02001784           JUNCTION      1.06   675.59     0  01:32      0.0305        3.57       0.014
  YS02001786           JUNCTION      0.06   673.45     0  01:33     0.00162        3.57       0.020
  YS02001788           JUNCTION      0.07   672.50     0  01:33     0.00204        3.57       0.009
  YS02001790           JUNCTION      0.15   672.69     0  01:34     0.00446        3.58       0.011
  YS02001791           JUNCTION      0.00   682.94     0  01:34           0        3.58       0.007
  YS02001793           JUNCTION      0.00   670.96     0  01:34           0        3.58       0.004
  YS02001882           JUNCTION      0.00    33.76     0  01:57           0      0.0407       1.715
  YS02001884           JUNCTION      0.00    53.23     0  01:15           0      0.0766       3.396
  YS02001887           JUNCTION    156.27   171.31     0  01:33       0.821       0.854       0.507
  YS02001890           JUNCTION      0.00   174.13     0  01:33           0       0.813       0.634
  YS02001895           JUNCTION      0.00   177.50     0  01:33           0       0.808       0.264
  YS02001898           JUNCTION      0.00   186.28     0  01:33           0       0.806      -0.005
  YS02001901           JUNCTION      0.00   194.71     0  01:32           0        0.81       0.420
  YS02001904           JUNCTION      0.00   170.64     0  01:34           0       0.818       0.351
  YS02001907           JUNCTION      0.00   475.16     0  01:32           0        2.47       0.732
  YS02001910           JUNCTION      0.00   336.46     0  01:32           0        1.65       0.430
  YS02001915           JUNCTION    188.15   302.70     0  01:32        1.01        1.66       0.095
  YS02001918           JUNCTION      0.00   108.04     0  01:33           0        0.65       0.045
  YS02001920           JUNCTION      2.87   104.84     0  01:33      0.0827       0.651       0.160
  YS02001923           JUNCTION      0.04   101.97     0  01:33     0.00109       0.569       0.001
  YS02001926           JUNCTION      0.05   101.99     0  01:32      0.0015       0.568       0.045
  YS02001929           JUNCTION    101.95   101.95     0  01:32       0.566       0.566      -0.012
  YS02006553           JUNCTION      0.00   466.99     0  01:33           0        2.47       0.475
  YS02006556           JUNCTION      0.00   465.74     0  01:33           0        2.48       0.331
  YS02006558           JUNCTION    212.91   711.31     0  01:31        1.13        3.58       0.100
  YS02006561           JUNCTION      0.00   702.70     0  01:32           0        3.54      -0.014
  YS02163301           JUNCTION      0.00   747.28     0  01:37           0         4.6       0.034
  YS02163601           JUNCTION      0.11   956.00     0  01:36     0.00317        5.79       0.087
  YS02164001           JUNCTION      0.00   956.03     0  01:36           0        5.79       0.043
  YSB1154              JUNCTION     43.87    43.87     0  01:33       0.243       0.243       0.591
  YSB1171              JUNCTION      0.00    76.65     0  01:33           0       0.428       1.503
  YSB1174              JUNCTION     33.44    33.44     0  01:32       0.178       0.178       0.720
  YSB6556              JUNCTION      0.00    43.79     0  01:33           0       0.244       0.520
  CC-1                 OUTFALL       0.00  3415.00     0  01:05           0        3.38       0.000
  CC-2                 OUTFALL       0.00  3415.00     0  00:05           0        4.66       0.000
  JK-1                 OUTFALL       0.00  5000.00     0  01:30           0        1.22       0.000
  JK-2                 OUTFALL       0.00  5000.00     0  01:30           0        1.14       0.000
  WSC                  OUTFALL       0.00  1163.55     0  02:15           0        12.7       0.000
  CC-storage           STORAGE       0.00  1753.89     0  01:35           0        12.4      -0.156
  JK-storage           STORAGE       0.00   670.91     0  01:34           0        3.73      -0.527
  XR-storage           STORAGE     200.00   200.00     0  00:00        5.76        6.36       0.001
  
  
  **********************
  Node Surcharge Summary
  **********************
  
  Surcharging occurs when water rises above the top of the highest conduit.
  ---------------------------------------------------------------------
                                               Max. Height   Min. Depth
                                   Hours       Above Crown    Below Rim
  Node                 Type      Surcharged         Meters       Meters
  ---------------------------------------------------------------------
  HS02004817           JUNCTION        0.25          0.008        1.732
  WS02004401           JUNCTION        1.59          0.411        1.249
  WS02004402           JUNCTION        1.61          0.348        1.392
  WS02004403           JUNCTION        1.61          0.337        1.693
  WS02004404           JUNCTION        1.70          0.428        2.352
  WS02004405           JUNCTION        1.68          0.415        2.385
  WS02004406           JUNCTION        1.66          0.497        1.953
  WS02004413           JUNCTION        0.92          0.032        2.168
  WS02006109           JUNCTION        2.04          0.993        0.827
  WS02006110           JUNCTION        1.81          0.711        1.139
  WS02006111           JUNCTION        0.40          0.306        1.564
  WS02006112           JUNCTION        1.89          0.727        0.953
  WS02006113           JUNCTION        0.53          0.306        1.624
  WS02006115           JUNCTION        1.46          0.496        1.754
  WS02006116           JUNCTION        1.48          0.455        1.835
  WS02006228           JUNCTION        2.04          1.140        1.060
  WS02006230           JUNCTION        1.67          0.955        0.615
  WS02006231           JUNCTION        1.70          1.016        0.514
  WS02006232           JUNCTION        1.89          1.274        0.206
  WS02006234           JUNCTION        1.74          1.240        0.000
  WS02006235           JUNCTION        1.77          1.290        0.000
  WS02006238           JUNCTION        1.79          1.395        0.035
  WS02006239           JUNCTION        1.72          1.290        0.000
  WS02006240           JUNCTION        1.68          1.390        0.000
  WS02006242           JUNCTION        1.74          0.820        0.000
  WS02006243           JUNCTION        1.59          0.770        0.000
  WS02006245           JUNCTION        1.56          0.850        0.000
  WS02006247           JUNCTION        1.59          0.760        0.000
  WS02006248           JUNCTION        1.46          0.380        0.000
  WS02006249           JUNCTION        1.49          0.390        0.000
  WS02006251           JUNCTION        0.66          1.180        0.000
  WS02006252           JUNCTION        0.97          1.100        0.000
  WS02006253           JUNCTION        0.71          2.480        0.000
  WS02006256           JUNCTION        5.79          2.050        0.000
  YS02001590           JUNCTION        0.45          0.102        0.648
  YS02001593           JUNCTION        0.50          0.105        0.735
  YS02001596           JUNCTION        1.07          0.421        0.649
  YS02001600           JUNCTION        1.49          0.737        0.453
  YS02001601           JUNCTION        1.90          1.057        0.383
  YS02001602           JUNCTION        1.83          0.851        0.419
  YS02001605           JUNCTION        1.79          0.664        0.516
  YS02001610           JUNCTION        0.11          0.014        0.666
  YS02001625           JUNCTION        0.86          0.114        0.666
  YS02001633           JUNCTION        0.90          0.121        0.939
  YS02001641           JUNCTION        0.06          0.003        1.097
  YS02001907           JUNCTION        0.52          0.051        0.899
  YS02006553           JUNCTION        0.78          0.064        1.126
  YS02163301           JUNCTION        0.83          0.109        0.921
  YS02163601           JUNCTION        1.02          0.121        0.959
  YS02164001           JUNCTION        0.19          0.018        1.082
  
  
  *********************
  Node Flooding Summary
  *********************
  
  Flooding refers to all water that overflows a node, whether it ponds or not.
  --------------------------------------------------------------------------
                                                             Total   Maximum
                                 Maximum   Time of Max       Flood    Ponded
                        Hours       Rate    Occurrence      Volume     Depth
  Node                 Flooded       LPS   days hr:min    10^6 ltr    Meters
  --------------------------------------------------------------------------
  WS02006234              0.01     21.73      0  01:26       0.000     0.000
  WS02006235              0.01     54.64      0  01:26       0.000     0.000
  WS02006239              0.01    232.27      0  01:26       0.001     0.000
  WS02006240              0.01    275.15      0  01:26       0.001     0.000
  WS02006242              0.05    506.34      0  01:26       0.011     0.000
  WS02006243              0.01    342.06      0  01:26       0.006     0.000
  WS02006245              0.01    306.70      0  03:05       0.002     0.000
  WS02006247              0.01    266.65      0  03:05       0.001     0.000
  WS02006248              0.38    320.43      0  01:25       0.055     0.000
  WS02006249              0.84    882.45      0  02:12       1.531     0.000
  WS02006251              0.01    764.08      0  01:45       0.008     0.000
  WS02006252              0.64   1470.71      0  01:45       0.722     0.000
  WS02006253              0.01    545.29      0  02:55       0.002     0.000
  WS02006256              0.58   1480.36      0  02:40       0.934     0.000
  
  
  **********************
  Storage Volume Summary
  **********************
  
  --------------------------------------------------------------------------------------------------
                         Average     Avg  Evap Exfil       Maximum     Max    Time of Max    Maximum
                          Volume    Pcnt  Pcnt  Pcnt        Volume    Pcnt     Occurrence    Outflow
  Storage Unit           1000 m3    Full  Loss  Loss       1000 m3    Full    days hr:min        LPS
  --------------------------------------------------------------------------------------------------
  CC-storage               1.472      23     0     0         2.229      35       0  00:00    8830.00
  JK-storage               0.081      28     0     0         0.211      72       0  02:01   11500.00
  XR-storage               0.938      65     0     0         1.111      77       0  08:00     380.00
  
  
  ***********************
  Outfall Loading Summary
  ***********************
  
  -----------------------------------------------------------
                         Flow       Avg       Max       Total
                         Freq      Flow      Flow      Volume
  Outfall Node           Pcnt       LPS       LPS    10^6 ltr
  -----------------------------------------------------------
  CC-1                   6.87   3098.96   3415.00       3.380
  CC-2                   9.26   3180.61   3415.00       4.664
  JK-1                   4.26   1761.90   5000.00       1.224
  JK-2                   1.70   4564.77   5000.00       1.140
  WSC                   99.95    626.59   1163.55      12.656
  -----------------------------------------------------------
  System                24.41  13232.82   1163.55      23.065
  
  
  ********************
  Link Flow Summary
  ********************
  
  -----------------------------------------------------------------------------
                                 Maximum  Time of Max   Maximum    Max/    Max/
                                  |Flow|   Occurrence   |Veloc|    Full    Full
  Link                 Type          LPS  days hr:min     m/sec    Flow   Depth
  -----------------------------------------------------------------------------
  1                    CONDUIT   1163.55     0  02:15      3.46    0.41    0.44
  HS02004478WS02006287 CONDUIT    729.94     0  02:08      2.17    0.20    0.37
  HS02004479HS02004480 CONDUIT     76.41     0  01:35      0.43    0.07    0.59
  HS02004480HS02004478 CONDUIT    548.37     0  02:07      1.58    2.31    0.50
  HS02004770HS02004777 CONDUIT    189.99     0  02:06      0.49    0.35    0.55
  HS02004777HS02004785 CONDUIT    189.90     0  02:07      0.59    0.23    0.46
  HS02004785HS02004788 CONDUIT    190.06     0  02:07      0.92    1.43    0.29
  HS02004788HS02004792 CONDUIT    246.34     0  02:07      1.26    0.16    0.28
  HS02004792HS02004799 CONDUIT    449.94     0  02:07      1.26    0.28    0.51
  HS02004799HS02004480 CONDUIT    478.97     0  02:07      1.11    0.61    0.62
  HS02004802HS02004478 CONDUIT    181.75     0  02:09      0.52    0.16    0.50
  HS02004807HS02004802 CONDUIT    181.62     0  02:07      0.47    0.35    0.56
  HS02004817HS02004807 CONDUIT    144.89     0  02:08      0.27    0.09    0.77
  HS02004817HS02004824 CONDUIT    144.25     0  02:08      0.34    0.07    0.60
  HS02004824HS02004830 CONDUIT     68.76     0  02:08      0.63    0.09    0.18
  HS02004830HS02004837 CONDUIT     68.73     0  02:07      0.68    0.07    0.14
  HS02004837HS02004842 CONDUIT     24.70     0  02:11      0.41    0.01    0.35
  HS02004842HS02004848 CONDUIT     24.34     0  02:09      0.10    0.01    0.34
  HS02004848HS02004852 CONDUIT     41.55     0  02:07      0.56    0.05    0.11
  HS02004852HS02004856 CONDUIT     41.55     0  02:07      0.36    0.05    0.16
  HS02004856HS02004862 CONDUIT     56.35     0  02:07      0.59    0.06    0.14
  HS02004862HS02004870 CONDUIT     85.18     0  02:07      0.83    0.09    0.15
  HS02004870HS02004876 CONDUIT    105.51     0  02:07      0.85    0.07    0.31
  HS02004876HS02004881 CONDUIT    291.95     0  02:21      1.88    3.11    0.40
  HS02004881HS02006253 CONDUIT    727.78     0  01:32      2.53    0.14    0.69
  HS02004901HS02004770 CONDUIT     34.52     0  02:06      0.09    0.13    0.54
  WS02001211WS02001212 CONDUIT    208.78     0  02:49      0.54    0.16    0.60
  WS02001212WS02001213 CONDUIT    213.00     0  02:48      1.03    0.33    0.46
  WS02001213WS02003059 CONDUIT    217.52     0  02:48      0.47    0.36    0.79
  WS02003059WS02003060 CONDUIT    224.23     0  03:02      0.67    0.15    0.71
  WS02003060WS02003069 CONDUIT   1164.60     0  02:13      1.97    0.46    0.52
  WS02003066WSF200     CONDUIT    963.00     0  02:03      3.13    0.16    0.32
  WS02003067WS02003066 CONDUIT    961.58     0  02:03      1.68    0.31    0.51
  WS02003069WS02003072 CONDUIT   1163.21     0  02:14      1.74    0.56    0.57
  WS02003072WS02003073 CONDUIT   1162.93     0  02:15      1.86    2.51    0.54
  WS02004138WS02004139 CONDUIT    190.82     0  00:29      2.15    0.04    0.37
  WS02004139WS02001211 CONDUIT    196.90     0  02:20      0.54    0.25    0.53
  WS02004401WS02004402 CONDUIT    973.65     0  02:02      1.24    1.17    1.00
  WS02004402WS02004403 CONDUIT    974.32     0  02:02      1.24    1.40    1.00
  WS02004403WS02004404 CONDUIT    974.80     0  02:02      1.24    0.70    1.00
  WS02004404WS02004405 CONDUIT    975.76     0  02:02      1.24    9.56    1.00
  WS02004405WS02004406 CONDUIT    976.87     0  02:02      1.24    1.93    1.00
  WS02004406WS02004407 CONDUIT    977.77     0  02:02      1.66    0.44    0.70
  WS02004407WS02004409 CONDUIT    973.39     0  02:02      1.85    0.34    0.69
  WS02004409WS02004410 CONDUIT    963.49     0  02:12      1.25    1.25    0.98
  WS02004410WS02004411 CONDUIT    957.57     0  02:12      1.24    1.31    0.96
  WS02004411WS02004412 CONDUIT    958.53     0  02:03      1.26    1.36    0.93
  WS02004412WS02004413 CONDUIT    959.10     0  02:03      1.24    0.64    0.96
  WS02004413WS02003067 CONDUIT    959.25     0  02:04      1.58    0.41    0.72
  WS02006109WS02006110 CONDUIT    942.57     0  02:02      1.88    1.81    1.00
  WS02006110WS02006113 CONDUIT    942.31     0  02:02      1.96    0.86    1.00
  WS02006111WS02006112 CONDUIT    941.33     0  02:02      2.00    0.45    1.00
  WS02006112WS02006115 CONDUIT    971.70     0  02:02      1.24    0.57    1.00
  WS02006113WS02006111 CONDUIT    941.47     0  02:02      2.70    1.13    1.00
  WS02006115WS02006116 CONDUIT    972.71     0  02:02      1.24    1.25    1.00
  WS02006116WS02004401 CONDUIT    973.18     0  02:02      1.24    1.34    1.00
  WS02006228WS02006109 CONDUIT    941.73     0  02:02      1.87    4.11    1.00
  WS02006229WS02006228 CONDUIT    941.27     0  02:02      1.87    3.12    1.00
  WS02006230WS02006229 CONDUIT    410.39     0  02:49      1.18    9.13    1.00
  WS02006231WS02006230 CONDUIT    461.29     0  03:17      1.27    7.00    1.00
  WS02006232WS02006231 CONDUIT    486.87     0  03:17      1.30    1.02    1.00
  WS02006234WS02006232 CONDUIT    483.20     0  03:17      1.41    0.98    1.00
  WS02006235WS02006234 CONDUIT    581.27     0  03:17      1.54    6.13    1.00
  WS02006238WS02006235 CONDUIT    598.18     0  03:16      1.58    1.34    1.00
  WS02006239WS02006238 CONDUIT    533.97     0  03:16      1.39    1.71    1.00
  WS02006240WS02006239 CONDUIT    546.28     0  03:16      1.44    1.72    1.00
  WS02006242WS02006240 CONDUIT    602.14     0  03:16      1.64    2.39    1.00
  WS02006243WS02006242 CONDUIT    651.04     0  03:16      1.72    1.39    1.00
  WS02006245WS02006243 CONDUIT    732.20     0  01:26      1.94    2.17    1.00
  WS02006247WS02006245 CONDUIT    791.53     0  01:26      2.10    6.28    1.00
  WS02006248WS02006247 CONDUIT    848.96     0  01:25      2.21    1.85    1.00
  WS02006249WS02006248 CONDUIT    876.38     0  01:25      2.29    4.80    1.00
  WS02006251WS02006249 CONDUIT    977.71     0  02:12      2.54    2.82    1.00
  WS02006252WS02006251 CONDUIT   1105.23     0  01:05     27.57    4.06    1.00
  WS02006253WS02006251 CONDUIT    739.57     0  01:32      1.92    2.22    1.00
  WS02006256WS02006235 CONDUIT    288.93     0  00:00      4.23    3.06    1.00
  WS02006280WS02006229 CONDUIT    749.41     0  02:05      4.14    0.16    0.59
  WS02006284WS02006280 CONDUIT    730.15     0  02:08      2.67    0.31    0.38
  WS02006287WS02006284 CONDUIT    730.01     0  02:08      2.44    0.34    0.41
  WSF200WS02003060     CONDUIT    968.86     0  02:03      2.19    0.22    0.42
  YS02001580YS02001583 CONDUIT      4.44     0  01:34      0.23    0.02    0.18
  YS02001583YS02001586 CONDUIT      8.50     0  01:33      0.09    0.01    0.43
  YS02001586YS02001590 CONDUIT    187.55     0  02:09      1.26    0.33    0.88
  YS02001590YS02001593 CONDUIT    189.76     0  02:11      1.05    1.19    1.00
  YS02001593YS02001596 CONDUIT    193.09     0  02:13      1.71    0.30    1.00
  YS02001596YS02001600 CONDUIT    193.08     0  02:13      1.20    0.38    1.00
  YS02001600YS02001601 CONDUIT    192.80     0  02:13      0.68    0.33    1.00
  YS02001601YS02001602 CONDUIT    452.80     0  01:36      1.60    1.64    1.00
  YS02001602YS02001605 CONDUIT    452.74     0  01:36      1.60    9.58    1.00
  YS02001605YS02001607 CONDUIT    452.76     0  01:36      1.60    2.48    1.00
  YS02001607YS02001610 CONDUIT    453.23     0  01:36      0.67    0.43    0.99
  YS02001610YS02001613 CONDUIT    453.26     0  01:36      0.59    0.52    0.98
  YS02001613YS02001616 CONDUIT    453.47     0  01:36      0.64    0.39    0.92
  YS02001616YS02001619 CONDUIT    454.02     0  01:37      0.69    0.79    0.86
  YS02001619YS02001622 CONDUIT    744.87     0  01:36      1.44    1.10    0.85
  YS02001622YS02001625 CONDUIT    745.92     0  01:37      0.99    0.40    0.92
  YS02001625YS02001629 CONDUIT    745.95     0  01:37      1.04    0.35    0.86
  YS02001629YS02163301 CONDUIT    747.28     0  01:37      0.95    0.92    1.00
  YS02001633YS02163601 CONDUIT    955.89     0  01:36      1.22    1.00    1.00
  YS02001641YS02001644 CONDUIT    956.30     0  01:36      1.22    3.09    0.98
  YS02001644YS02001647 CONDUIT   1131.15     0  01:35      1.72    0.66    0.78
  YS02001647YS02001649 CONDUIT   1131.57     0  01:35      2.18    0.60    0.63
  YS02001649YS02001757 CONDUIT   1303.01     0  01:35      2.40    0.79    0.65
  YS02001652YS02001649 CONDUIT    174.23     0  01:33      1.11    0.09    0.55
  YS02001655YS02001652 CONDUIT    172.51     0  01:32      1.48    0.08    0.31
  YS02001658YS02001655 CONDUIT    172.38     0  01:32      1.67    0.07    0.19
  YS02001661YS02001658 CONDUIT    172.41     0  01:32      1.80    0.07    0.18
  YS02001664YS02001661 CONDUIT    172.43     0  01:32      1.52    0.05    0.20
  YS02001745YS02001748 CONDUIT    103.95     0  01:30      1.61    0.04    0.14
  YS02001748YS02001751 CONDUIT    103.99     0  01:30      1.35    0.05    0.15
  YS02001751YS02001754 CONDUIT    103.99     0  01:31      1.36    0.05    0.20
  YS02001754YS02001757 CONDUIT    118.03     0  01:31      0.81    0.05    0.48
  YS02001757CaochengTiaoxuchi CONDUIT   1753.89     0  01:35      3.73    0.76    0.64
  YS02001759YS02001757 CONDUIT    359.84     0  01:32      1.16    0.26    0.60
  YS02001762YS02001759 CONDUIT    213.10     0  01:35      0.70    0.25    0.54
  YS02001765YS02001762 CONDUIT    212.07     0  01:34      0.81    0.20    0.50
  YS02001767YS02001765 CONDUIT    215.99     0  01:33      0.86    0.27    0.46
  YS02001770YS02001767 CONDUIT    215.97     0  01:33      0.77    0.86    0.46
  YS02001774YS02001770 CONDUIT     34.97     0  01:08      0.54    0.02    0.49
  YS02001779YS02001774 CONDUIT     14.40     0  01:09      0.16    0.01    0.41
  YS02001783YS02001784 CONDUIT    674.53     0  01:32      1.60    0.93    0.79
  YS02001784YS02001785 CONDUIT    673.39     0  01:33      1.71    1.57    0.73
  YS02001786YS02001788 CONDUIT    672.43     0  01:33      2.16    1.30    0.59
  YS02001788YS02001790 CONDUIT    672.53     0  01:34      2.25    0.50    0.58
  YS02001790YS02001791 CONDUIT    682.94     0  01:34      2.67    0.74    0.51
  YS02001791YS02001793 CONDUIT    670.96     0  01:34      5.54    0.29    0.29
  YS02001793JiankangQianchi CONDUIT    670.91     0  01:34      1.66    0.05    0.58
  YS02001882YS02001884 CONDUIT     33.76     0  01:57      0.29    0.04    0.65
  YS02001884YS02001887 CONDUIT     53.23     0  01:15      0.23    0.07    0.75
  YS02001887YS02001890 CONDUIT    174.13     0  01:33      0.27    0.30    0.80
  YS02001890YS02001895 CONDUIT    177.50     0  01:33      0.30    0.08    0.72
  YS02001895YS02001898 CONDUIT    186.28     0  01:33      0.55    0.32    0.58
  YS02001898YS02001901 CONDUIT    194.71     0  01:32      0.48    0.13    0.66
  YS02001901YS02001904 CONDUIT    170.64     0  01:34      0.49    0.26    0.72
  YS02001904YS02001907 CONDUIT    188.12     0  01:33      0.27    0.07    0.86
  YS02001907YS02006553 CONDUIT    466.99     0  01:33      0.52    0.55    1.00
  YS02001910YS02001907 CONDUIT    325.60     0  01:32      0.49    0.18    0.92
  YS02001915YS02001910 CONDUIT    336.46     0  01:32      0.93    0.17    0.73
  YS02001918YS02001915 CONDUIT    115.68     0  01:32      0.44    0.06    0.44
  YS02001920YS02001918 CONDUIT    108.04     0  01:33      0.65    0.10    0.31
  YS02001923YS02001920 CONDUIT    101.97     0  01:33      0.69    0.05    0.25
  YS02001926YS02001923 CONDUIT    101.94     0  01:33      0.78    0.15    0.22
  YS02001929YS02001926 CONDUIT    101.94     0  01:32      0.84    0.05    0.21
  YS02006553YS02006556 CONDUIT    465.74     0  01:33      0.60    0.40    1.00
  YS02006556YS02006558 CONDUIT    499.14     0  01:31      0.64    0.39    1.00
  YS02006558YS02006561 CONDUIT    702.70     0  01:32      3.14    1.55    0.76
  YS02006561YS02001783 CONDUIT    678.99     0  01:32      2.14    0.35    0.62
  YS02163301YS02001633 CONDUIT    747.31     0  01:37      0.95    0.70    1.00
  YS02163601YS02164001 CONDUIT    956.03     0  01:36      1.22    0.85    1.00
  YS02164001YS02001641 CONDUIT    956.20     0  01:36      1.22    1.31    1.00
  YSB1154YSB6556       CONDUIT     43.79     0  01:33      0.15    0.08    0.75
  YSB1171HS02004479    CONDUIT     76.26     0  01:34      0.54    0.05    0.69
  YSB1174YSB1171       CONDUIT     33.34     0  01:32      0.10    0.05    0.86
  YSB6556YSB1171       CONDUIT     43.77     0  01:34      0.13    0.05    0.83
  CC-R1                PUMP      3415.00     0  01:05              5.00
  CC-R2                PUMP      3415.00     0  00:05              5.00
  CC-S1                PUMP      1000.00     0  01:05              5.00
  CC-S2                PUMP      1000.00     0  01:05              5.00
  JK-R1                PUMP      5000.00     0  01:30              5.00
  JK-R2                PUMP      5000.00     0  01:30              5.00
  JK-S                 PUMP      1500.00     0  00:20              5.00
  XR-1                 PUMP        95.00     0  00:00              1.00
  XR-2                 PUMP        95.00     0  00:00              1.00
  XR-3                 PUMP        95.00     0  00:00              1.00
  XR-4                 PUMP        95.00     0  00:00              1.00
  
  
  ***************************
  Flow Classification Summary
  ***************************
  
  -------------------------------------------------------------------------------------
                      Adjusted    ---------- Fraction of Time in Flow Class ---------- 
                       /Actual         Up    Down  Sub   Sup   Up    Down  Norm  Inlet 
  Conduit               Length    Dry  Dry   Dry   Crit  Crit  Crit  Crit  Ltd   Ctrl  
  -------------------------------------------------------------------------------------
  1                       1.00   0.00  0.00  0.00  0.00  1.00  0.00  0.00  0.35  0.00
  HS02004478WS02006287    1.00   0.08  0.00  0.00  0.40  0.52  0.00  0.00  0.60  0.00
  HS02004479HS02004480    1.00   0.03  0.00  0.00  0.97  0.00  0.00  0.00  0.10  0.00
  HS02004480HS02004478    1.00   0.07  0.00  0.00  0.34  0.00  0.00  0.58  0.00  0.00
  HS02004770HS02004777    1.00   0.00  0.07  0.00  0.93  0.00  0.00  0.00  0.01  0.00
  HS02004777HS02004785    1.00   0.00  0.00  0.00  1.00  0.00  0.00  0.00  0.10  0.00
  HS02004785HS02004788    1.00   0.00  0.00  0.00  1.00  0.00  0.00  0.00  0.00  0.00
  HS02004788HS02004792    1.00   0.00  0.00  0.00  0.99  0.01  0.00  0.00  0.98  0.00
  HS02004792HS02004799    1.00   0.00  0.00  0.00  0.99  0.01  0.00  0.00  0.98  0.00
  HS02004799HS02004480    1.00   0.00  0.03  0.00  0.92  0.00  0.05  0.00  0.00  0.00
  HS02004802HS02004478    1.00   0.07  0.00  0.00  0.92  0.00  0.00  0.00  0.02  0.00
  HS02004807HS02004802    1.00   0.07  0.00  0.00  0.92  0.00  0.00  0.01  0.00  0.00
  HS02004817HS02004807    1.00   0.00  0.07  0.00  0.93  0.00  0.00  0.00  0.01  0.00
  HS02004817HS02004824    1.00   0.00  0.00  0.00  1.00  0.00  0.00  0.00  0.82  0.00
  HS02004824HS02004830    1.00   0.00  0.00  0.00  1.00  0.00  0.00  0.00  0.10  0.00
  HS02004830HS02004837    1.00   0.00  0.00  0.00  1.00  0.00  0.00  0.00  0.99  0.00
  HS02004837HS02004842    1.00   0.00  0.00  0.00  1.00  0.00  0.00  0.00  0.11  0.00
  HS02004842HS02004848    1.00   0.00  0.07  0.00  0.93  0.00  0.00  0.00  0.57  0.00
  HS02004848HS02004852    1.00   0.07  0.00  0.00  0.93  0.00  0.00  0.00  0.83  0.00
  HS02004852HS02004856    1.00   0.07  0.00  0.00  0.92  0.00  0.00  0.00  0.69  0.00
  HS02004856HS02004862    1.00   0.00  0.08  0.00  0.92  0.00  0.00  0.00  0.85  0.00
  HS02004862HS02004870    1.00   0.00  0.00  0.00  1.00  0.00  0.00  0.00  0.02  0.00
  HS02004870HS02004876    1.00   0.00  0.00  0.00  0.99  0.01  0.00  0.00  0.95  0.00
  HS02004876HS02004881    1.00   0.02  0.00  0.00  0.68  0.30  0.00  0.00  0.00  0.00
  HS02004881HS02006253    1.00   0.03  0.01  0.00  0.46  0.03  0.00  0.47  0.16  0.00
  HS02004901HS02004770    1.00   0.07  0.00  0.00  0.93  0.00  0.00  0.00  0.00  0.00
  WS02001211WS02001212    1.00   0.00  0.02  0.00  0.98  0.00  0.00  0.00  0.00  0.00
  WS02001212WS02001213    1.00   0.02  0.00  0.00  0.52  0.00  0.45  0.00  0.00  0.00
  WS02001213WS02003059    1.00   0.00  0.00  0.00  0.99  0.00  0.00  0.00  0.00  0.00
  WS02003059WS02003060    1.00   0.00  0.00  0.00  1.00  0.00  0.00  0.00  0.03  0.00
  WS02003060WS02003069    1.00   0.00  0.00  0.00  0.98  0.02  0.00  0.00  0.58  0.00
  WS02003066WSF200        1.00   0.07  0.00  0.00  0.00  0.93  0.00  0.00  0.63  0.00
  WS02003067WS02003066    1.00   0.06  0.01  0.00  0.93  0.00  0.00  0.00  0.00  0.00
  WS02003069WS02003072    1.00   0.00  0.00  0.00  1.00  0.00  0.00  0.00  0.68  0.00
  WS02003072WS02003073    1.00   0.00  0.00  0.00  0.00  0.00  0.00  1.00  0.00  0.00
  WS02004138WS02004139    1.00   0.00  0.00  0.00  0.97  0.01  0.00  0.01  0.98  0.00
  WS02004139WS02001211    1.00   0.00  0.00  0.00  0.99  0.00  0.00  0.00  0.00  0.00
  WS02004401WS02004402    1.00   0.02  0.00  0.00  0.98  0.00  0.00  0.00  0.00  0.00
  WS02004402WS02004403    1.00   0.02  0.00  0.00  0.97  0.00  0.00  0.00  0.00  0.00
  WS02004403WS02004404    1.00   0.00  0.03  0.00  0.97  0.00  0.00  0.00  0.00  0.00
  WS02004404WS02004405    1.00   0.00  0.00  0.00  1.00  0.00  0.00  0.00  0.00  0.00
  WS02004405WS02004406    1.00   0.00  0.00  0.00  1.00  0.00  0.00  0.00  0.00  0.00
  WS02004406WS02004407    1.00   0.00  0.04  0.00  0.96  0.00  0.00  0.00  0.00  0.00
  WS02004407WS02004409    1.00   0.04  0.00  0.00  0.95  0.01  0.00  0.00  0.94  0.00
  WS02004409WS02004410    1.00   0.04  0.00  0.00  0.96  0.00  0.00  0.00  0.03  0.00
  WS02004410WS02004411    1.00   0.04  0.00  0.00  0.96  0.00  0.00  0.00  0.01  0.00
  WS02004411WS02004412    1.00   0.04  0.00  0.00  0.96  0.00  0.00  0.00  0.00  0.00
  WS02004412WS02004413    1.00   0.04  0.00  0.00  0.96  0.00  0.00  0.00  0.01  0.00
  WS02004413WS02003067    1.00   0.04  0.02  0.00  0.00  0.00  0.94  0.00  0.00  0.00
  WS02006109WS02006110    1.00   0.00  0.01  0.00  0.98  0.00  0.01  0.00  0.00  0.00
  WS02006110WS02006113    1.00   0.01  0.01  0.00  0.98  0.00  0.00  0.00  0.00  0.00
  WS02006111WS02006112    1.00   0.02  0.00  0.00  0.98  0.00  0.00  0.00  0.77  0.00
  WS02006112WS02006115    1.00   0.02  0.00  0.00  0.97  0.00  0.00  0.00  0.00  0.00
  WS02006113WS02006111    1.00   0.02  0.00  0.00  0.37  0.61  0.00  0.00  0.06  0.00
  WS02006115WS02006116    1.00   0.02  0.00  0.00  0.97  0.00  0.00  0.01  0.00  0.00
  WS02006116WS02004401    1.00   0.02  0.00  0.00  0.98  0.00  0.00  0.00  0.00  0.00
  WS02006228WS02006109    1.00   0.00  0.00  0.00  1.00  0.00  0.00  0.00  0.00  0.00
  WS02006229WS02006228    1.00   0.00  0.00  0.00  0.99  0.00  0.00  0.01  0.00  0.00
  WS02006230WS02006229    1.00   0.00  0.00  0.00  0.99  0.00  0.00  0.01  0.03  0.00
  WS02006231WS02006230    1.00   0.00  0.00  0.00  0.54  0.00  0.46  0.00  0.00  0.00
  WS02006232WS02006231    1.00   0.00  0.00  0.00  0.99  0.00  0.00  0.00  0.00  0.00
  WS02006234WS02006232    1.00   0.00  0.00  0.00  1.00  0.00  0.00  0.00  0.09  0.00
  WS02006235WS02006234    1.00   0.00  0.00  0.00  0.83  0.00  0.17  0.00  0.00  0.00
  WS02006238WS02006235    1.00   0.00  0.00  0.00  1.00  0.00  0.00  0.00  0.00  0.00
  WS02006239WS02006238    1.00   0.00  0.00  0.00  1.00  0.00  0.00  0.00  0.30  0.00
  WS02006240WS02006239    1.00   0.00  0.00  0.00  0.69  0.00  0.00  0.30  0.02  0.00
  WS02006242WS02006240    1.00   0.00  0.00  0.00  0.99  0.00  0.01  0.00  0.00  0.00
  WS02006243WS02006242    1.00   0.00  0.00  0.00  0.99  0.00  0.00  0.00  0.67  0.00
  WS02006245WS02006243    1.00   0.00  0.00  0.00  0.91  0.00  0.00  0.09  0.00  0.00
  WS02006247WS02006245    1.00   0.00  0.00  0.00  0.98  0.00  0.00  0.02  0.00  0.00
  WS02006248WS02006247    1.00   0.00  0.00  0.00  0.99  0.00  0.00  0.01  0.62  0.00
  WS02006249WS02006248    1.00   0.00  0.00  0.00  0.60  0.00  0.40  0.00  0.00  0.00
  WS02006251WS02006249    1.00   0.00  0.00  0.00  1.00  0.00  0.00  0.00  0.66  0.00
  WS02006252WS02006251    1.00   0.20  0.35  0.00  0.36  0.01  0.08  0.00  0.01  0.00
  WS02006253WS02006251    1.00   0.00  0.00  0.00  0.98  0.00  0.02  0.00  0.00  0.00
  WS02006256WS02006235    1.00   0.00  0.00  0.00  0.99  0.01  0.00  0.00  0.00  0.00
  WS02006280WS02006229    1.00   0.08  0.00  0.00  0.08  0.29  0.00  0.56  0.02  0.00
  WS02006284WS02006280    1.00   0.08  0.00  0.00  0.00  0.00  0.00  0.92  0.00  0.00
  WS02006287WS02006284    1.00   0.06  0.02  0.00  0.31  0.60  0.00  0.00  0.63  0.00
  WSF200WS02003060        1.00   0.00  0.07  0.00  0.43  0.50  0.00  0.00  0.60  0.00
  YS02001580YS02001583    1.00   0.16  0.60  0.00  0.25  0.00  0.00  0.00  0.79  0.00
  YS02001583YS02001586    1.00   0.27  0.35  0.00  0.37  0.00  0.01  0.00  0.79  0.00
  YS02001586YS02001590    1.00   0.07  0.00  0.00  0.65  0.02  0.00  0.25  0.35  0.00
  YS02001590YS02001593    1.00   0.07  0.00  0.00  0.30  0.00  0.63  0.00  0.00  0.00
  YS02001593YS02001596    1.00   0.07  0.00  0.00  0.38  0.04  0.00  0.51  0.05  0.00
  YS02001596YS02001600    1.00   0.07  0.00  0.00  0.49  0.01  0.00  0.42  0.03  0.00
  YS02001600YS02001601    1.00   0.07  0.00  0.00  0.92  0.00  0.00  0.00  0.58  0.00
  YS02001601YS02001602    1.00   0.07  0.00  0.00  0.93  0.00  0.00  0.00  0.00  0.00
  YS02001602YS02001605    1.00   0.07  0.00  0.00  0.93  0.00  0.00  0.00  0.00  0.00
  YS02001605YS02001607    1.00   0.07  0.00  0.00  0.93  0.00  0.00  0.00  0.00  0.00
  YS02001607YS02001610    1.00   0.07  0.00  0.00  0.92  0.00  0.00  0.00  0.00  0.00
  YS02001610YS02001613    1.00   0.07  0.00  0.00  0.93  0.00  0.00  0.00  0.00  0.00
  YS02001613YS02001616    1.00   0.07  0.00  0.00  0.93  0.00  0.00  0.00  0.00  0.00
  YS02001616YS02001619    1.00   0.07  0.00  0.00  0.93  0.00  0.00  0.00  0.00  0.00
  YS02001619YS02001622    1.00   0.07  0.00  0.00  0.93  0.00  0.00  0.00  0.34  0.00
  YS02001622YS02001625    1.00   0.07  0.00  0.00  0.92  0.00  0.00  0.00  0.01  0.00
  YS02001625YS02001629    1.00   0.07  0.01  0.00  0.44  0.00  0.47  0.00  0.00  0.00
  YS02001629YS02163301    1.00   0.08  0.00  0.00  0.92  0.00  0.00  0.00  0.00  0.00
  YS02001633YS02163601    1.00   0.00  0.01  0.00  0.99  0.00  0.00  0.00  0.13  0.00
  YS02001641YS02001644    1.00   0.00  0.00  0.00  1.00  0.00  0.00  0.00  0.00  0.00
  YS02001644YS02001647    1.00   0.00  0.08  0.00  0.92  0.00  0.00  0.00  0.00  0.00
  YS02001647YS02001649    1.00   0.00  0.08  0.00  0.57  0.35  0.00  0.00  0.58  0.00
  YS02001649YS02001757    1.00   0.00  0.00  0.00  0.32  0.68  0.00  0.00  0.62  0.00
  YS02001652YS02001649    1.00   0.00  0.00  0.00  0.99  0.01  0.00  0.00  0.71  0.00
  YS02001655YS02001652    1.00   0.00  0.00  0.00  0.48  0.02  0.00  0.51  0.24  0.00
  YS02001658YS02001655    1.00   0.00  0.08  0.00  0.34  0.58  0.00  0.00  0.82  0.00
  YS02001661YS02001658    1.00   0.07  0.00  0.00  0.26  0.66  0.00  0.00  0.83  0.00
  YS02001664YS02001661    1.00   0.07  0.00  0.00  0.48  0.45  0.00  0.00  0.87  0.00
  YS02001745YS02001748    1.00   0.00  0.00  0.00  0.00  0.00  0.00  1.00  0.00  0.00
  YS02001748YS02001751    1.00   0.00  0.00  0.00  0.45  0.55  0.00  0.00  0.84  0.00
  YS02001751YS02001754    1.00   0.00  0.00  0.00  0.26  0.07  0.00  0.67  0.14  0.00
  YS02001754YS02001757    1.00   0.00  0.00  0.00  1.00  0.00  0.00  0.00  0.79  0.00
  YS02001757CaochengTiaoxuchi    1.00   0.00  0.00  0.00  0.53  0.47  0.00  0.00  0.91  0.00
  YS02001759YS02001757    1.00   0.00  0.00  0.00  0.99  0.01  0.00  0.00  0.62  0.00
  YS02001762YS02001759    1.00   0.00  0.00  0.00  1.00  0.00  0.00  0.00  0.01  0.00
  YS02001765YS02001762    1.00   0.00  0.00  0.00  1.00  0.00  0.00  0.00  0.71  0.00
  YS02001767YS02001765    1.00   0.00  0.00  0.00  1.00  0.00  0.00  0.00  0.00  0.00
  YS02001770YS02001767    1.00   0.00  0.00  0.00  1.00  0.00  0.00  0.00  0.00  0.00
  YS02001774YS02001770    1.00   0.00  0.07  0.00  0.78  0.00  0.15  0.00  0.01  0.00
  YS02001779YS02001774    1.00   0.00  0.00  0.00  1.00  0.00  0.00  0.00  0.75  0.00
  YS02001783YS02001784    1.00   0.00  0.08  0.00  0.92  0.00  0.00  0.00  0.56  0.00
  YS02001784YS02001785    1.00   0.00  0.00  0.00  1.00  0.00  0.00  0.00  0.13  0.00
  YS02001786YS02001788    1.00   0.00  0.00  0.00  0.44  0.56  0.00  0.00  0.00  0.00
  YS02001788YS02001790    1.00   0.00  0.00  0.00  0.08  0.92  0.00  0.00  0.76  0.00
  YS02001790YS02001791    1.00   0.00  0.00  0.00  0.01  0.99  0.00  0.00  0.26  0.00
  YS02001791YS02001793    1.00   0.00  0.00  0.00  0.00  1.00  0.00  0.00  0.00  0.00
  YS02001793JiankangQianchi    1.00   0.00  0.00  0.00  1.00  0.00  0.00  0.00  1.00  0.00
  YS02001882YS02001884    1.00   0.08  0.00  0.00  0.92  0.00  0.00  0.00  0.00  0.00
  YS02001884YS02001887    1.00   0.04  0.02  0.00  0.93  0.00  0.00  0.00  0.00  0.00
  YS02001887YS02001890    1.00   0.00  0.00  0.00  0.97  0.00  0.03  0.00  0.00  0.00
  YS02001890YS02001895    1.00   0.00  0.07  0.00  0.92  0.00  0.00  0.00  0.00  0.00
  YS02001895YS02001898    1.00   0.08  0.00  0.00  0.92  0.00  0.00  0.00  0.00  0.00
  YS02001898YS02001901    1.00   0.08  0.00  0.00  0.92  0.00  0.00  0.00  0.00  0.00
  YS02001901YS02001904    1.00   0.08  0.00  0.00  0.92  0.00  0.00  0.00  0.00  0.00
  YS02001904YS02001907    1.00   0.00  0.08  0.00  0.92  0.00  0.00  0.00  0.00  0.00
  YS02001907YS02006553    1.00   0.00  0.02  0.00  0.98  0.00  0.00  0.00  0.00  0.00
  YS02001910YS02001907    1.00   0.00  0.00  0.00  0.97  0.00  0.00  0.02  0.11  0.00
  YS02001915YS02001910    1.00   0.00  0.00  0.00  0.98  0.02  0.00  0.00  0.11  0.00
  YS02001918YS02001915    1.00   0.00  0.00  0.00  0.98  0.02  0.00  0.00  0.71  0.00
  YS02001920YS02001918    1.00   0.00  0.00  0.00  1.00  0.00  0.00  0.00  0.00  0.00
  YS02001923YS02001920    1.00   0.00  0.00  0.00  1.00  0.00  0.00  0.00  1.00  0.00
  YS02001926YS02001923    1.00   0.00  0.05  0.00  0.00  0.00  0.95  0.00  0.00  0.00
  YS02001929YS02001926    1.00   0.00  0.07  0.00  0.93  0.00  0.00  0.00  0.87  0.00
  YS02006553YS02006556    1.00   0.01  0.00  0.00  0.99  0.00  0.00  0.00  0.03  0.00
  YS02006556YS02006558    1.00   0.00  0.00  0.00  1.00  0.00  0.00  0.00  0.00  0.00
  YS02006558YS02006561    1.00   0.08  0.00  0.00  0.00  0.92  0.00  0.00  0.17  0.00
  YS02006561YS02001783    1.00   0.08  0.00  0.00  0.00  0.92  0.00  0.00  0.67  0.00
  YS02163301YS02001633    1.00   0.00  0.08  0.00  0.92  0.00  0.00  0.00  0.00  0.00
  YS02163601YS02164001    1.00   0.00  0.05  0.00  0.95  0.00  0.00  0.00  0.00  0.00
  YS02164001YS02001641    1.00   0.01  0.05  0.00  0.95  0.00  0.00  0.00  0.05  0.00
  YSB1154YSB6556          1.00   0.07  0.00  0.00  0.93  0.00  0.00  0.00  0.01  0.00
  YSB1171HS02004479       1.00   0.03  0.00  0.00  0.96  0.00  0.00  0.01  0.09  0.00
  YSB1174YSB1171          1.00   0.04  0.02  0.00  0.94  0.00  0.00  0.00  0.00  0.00
  YSB6556YSB1171          1.00   0.04  0.04  0.00  0.93  0.00  0.00  0.00  0.00  0.00
  
  
  *************************
  Conduit Surcharge Summary
  *************************
  
  ----------------------------------------------------------------------------
                                                           Hours        Hours 
                         --------- Hours Full --------   Above Full   Capacity
  Conduit                Both Ends  Upstream  Dnstream   Normal Flow   Limited
  ----------------------------------------------------------------------------
  HS02004480HS02004478        0.01      0.01      0.01      1.80         0.01
  HS02004785HS02004788        0.01      0.01      0.01      1.33         0.01
  HS02004817HS02004807        0.01      0.01      0.25      0.01         0.01
  HS02004817HS02004824        0.01      0.01      0.25      0.01         0.01
  HS02004876HS02004881        0.01      0.01      0.01      1.18         0.01
  HS02004881HS02006253        0.01      0.01      0.71      0.01         0.01
  WS02003072WS02003073        0.01      0.01      0.01      2.28         0.01
  WS02004401WS02004402        1.59      1.59      1.61      1.29         1.17
  WS02004402WS02004403        1.61      1.61      1.61      1.59         1.56
  WS02004403WS02004404        1.61      1.61      1.70      0.01         0.01
  WS02004404WS02004405        1.68      1.70      1.68      2.67         1.68
  WS02004405WS02004406        1.66      1.68      1.66      1.84         1.65
  WS02004406WS02004407        0.01      0.01      1.66      0.01         0.01
  WS02004409WS02004410        0.01      0.01      0.01      1.44         0.01
  WS02004410WS02004411        0.01      0.01      0.01      1.53         0.01
  WS02004411WS02004412        0.01      0.01      0.01      1.59         0.01
  WS02004412WS02004413        0.01      0.01      0.92      0.01         0.01
  WS02004413WS02003067        0.01      0.01      0.92      0.01         0.01
  WS02006109WS02006110        1.81      1.81      2.06      1.82         0.01
  WS02006110WS02006113        0.53      0.53      2.05      0.01         0.01
  WS02006111WS02006112        0.40      0.40      2.15      0.01         0.01
  WS02006112WS02006115        1.45      1.45      1.89      0.01         0.01
  WS02006113WS02006111        0.47      0.53      0.47      1.16         0.46
  WS02006115WS02006116        1.47      1.47      1.48      1.43         1.40
  WS02006116WS02004401        1.58      1.58      1.59      1.55         1.52
  WS02006228WS02006109        2.04      2.06      2.04      2.30         2.04
  WS02006229WS02006228        2.04      2.04      2.04      2.14         2.04
  WS02006230WS02006229        2.07      2.08      2.08      2.82         1.88
  WS02006231WS02006230        1.66      1.67      1.71      2.53         0.15
  WS02006232WS02006231        1.70      1.70      1.89      0.01         0.01
  WS02006234WS02006232        1.77      1.78      1.89      0.01         0.04
  WS02006235WS02006234        1.73      1.74      1.76      2.36         0.10
  WS02006238WS02006235        1.78      1.78      1.84      0.01         0.02
  WS02006239WS02006238        1.77      1.79      1.79      0.08         0.14
  WS02006240WS02006239        1.69      1.70      1.72      0.08         0.12
  WS02006242WS02006240        1.67      1.68      1.78      0.38         0.03
  WS02006243WS02006242        1.61      1.62      1.74      0.02         0.03
  WS02006245WS02006243        1.56      1.58      1.59      0.12         0.10
  WS02006247WS02006245        1.56      1.60      1.56      1.72         0.99
  WS02006248WS02006247        1.49      1.50      1.59      0.05         0.06
  WS02006249WS02006248        1.45      1.46      1.49      0.87         0.06
  WS02006251WS02006249        1.42      1.48      1.49      0.86         0.64
  WS02006252WS02006251        0.83      3.34      0.95      0.83         0.01
  WS02006253WS02006251        1.42      1.47      1.51      0.18         0.26
  WS02006256WS02006235        2.46      2.50      5.70      0.59         0.01
  YS02001586YS02001590        0.01      0.01      0.45      0.01         0.01
  YS02001590YS02001593        0.50      0.50      0.70      0.95         0.01
  YS02001593YS02001596        0.68      0.68      1.07      0.01         0.01
  YS02001596YS02001600        1.21      1.21      1.49      0.01         0.01
  YS02001600YS02001601        1.67      1.67      1.90      0.01         0.01
  YS02001601YS02001602        1.83      1.83      1.92      1.65         0.01
  YS02001602YS02001605        1.79      1.79      1.83      2.40         0.01
  YS02001605YS02001607        1.75      1.79      1.75      1.88         1.75
  YS02001607YS02001610        0.01      0.01      0.11      0.01         0.01
  YS02001610YS02001613        0.01      0.01      0.11      0.01         0.01
  YS02001619YS02001622        0.01      0.01      0.01      0.80         0.01
  YS02001622YS02001625        0.01      0.01      0.86      0.01         0.01
  YS02001625YS02001629        0.01      0.01      0.86      0.01         0.01
  YS02001629YS02163301        0.81      0.81      0.83      0.01         0.01
  YS02001633YS02163601        0.90      0.90      1.02      0.05         0.05
  YS02001641YS02001644        0.01      0.06      0.01      1.92         0.01
  YS02001784YS02001785        0.01      0.01      0.01      1.23         0.01
  YS02001786YS02001788        0.01      0.01      0.01      0.86         0.01
  YS02001793JiankangQianchi        0.01      0.01      4.02      0.01         0.01
  YS02001904YS02001907        0.01      0.01      0.81      0.01         0.01
  YS02001907YS02006553        1.25      1.25      1.36      0.01         0.01
  YS02001910YS02001907        0.01      0.01      0.52      0.01         0.01
  YS02006553YS02006556        0.01      0.01      0.78      0.01         0.01
  YS02006556YS02006558        0.06      0.06      0.85      0.01         0.01
  YS02006558YS02006561        0.01      0.01      0.01      1.12         0.01
  YS02163301YS02001633        0.83      0.83      0.98      0.01         0.01
  YS02163601YS02164001        0.19      0.19      1.02      0.01         0.01
  YS02164001YS02001641        0.06      0.19      0.06      1.18         0.06
  YSB6556YSB1171              0.01      0.01      1.01      0.01         0.01
  
  
  ***************
  Pumping Summary
  ***************
  
  ---------------------------------------------------------------------------------------------------------
                                                  Min       Avg       Max     Total     Power    % Time Off
                        Percent   Number of      Flow      Flow      Flow    Volume     Usage    Pump Curve
  Pump                 Utilized   Start-Ups       LPS       LPS       LPS  10^6 ltr     Kw-hr    Low   High
  ---------------------------------------------------------------------------------------------------------
  CC-R1                    4.27          25      0.00   3098.96   3415.00     3.383     55.83    0.0  100.0
  CC-R2                    5.57          26      0.00   3180.61   3415.00     4.662     76.90    0.0  100.0
  CC-S1                    4.92          19      0.00    913.67   1000.00     1.177     11.56    0.0    0.0
  CC-S2                    7.26          21      0.00    944.57   1000.00     1.851     18.21    0.0    0.0
  JK-R1                    2.60          13      0.00   1761.90   5000.00     1.223     10.70    0.0    0.0
  JK-R2                    0.92          17      0.00   4564.77   5000.00     1.142      9.15    0.0    0.0
  JK-S                     7.25          33      0.00    647.76   1500.00     1.334     23.79    0.0    0.0
  XR-1                    97.91           2      0.00     95.00     95.00     2.679      9.60    0.0    0.0
  XR-2                    93.94           2      0.00     95.00     95.00     2.570      8.76    0.0    0.0
  XR-3                     0.00           1      0.00     95.00     95.00     0.000      0.00    0.0    0.0
  XR-4                     0.00           1      0.00     95.00     95.00     0.000      0.00    0.0    0.0
  

  Analysis begun on:  Thu Jul 20 11:26:22 2023
  Analysis ended on:  Thu Jul 20 11:26:30 2023
  Total elapsed time: 00:00:08