
  OWA STORM WATER MANAGEMENT MODEL - VERSION v5.1.14 (OWA 2022-07-31)
  --------------------------------------------------------------

  WARNING 04: minimum elevation drop used for Conduit WS02004404WS02004405
  WARNING 03: negative offset ignored for Link YS02001904YS02001907
  
  *********************************************************
  NOTE: The summary statistics displayed in this report are
  based on results found at every computational time step,  
  not just on results from each reporting time step.
  *********************************************************
  
  ****************
  Analysis Options
  ****************
  Flow Units ............... LPS
  Process Models:
    Rainfall/Runoff ........ YES
    RDII ................... NO
    Snowmelt ............... NO
    Groundwater ............ NO
    Flow Routing ........... YES
    Ponding Allowed ........ NO
    Water Quality .......... NO
  Infiltration Method ...... HORTON
  Flow Routing Method ...... DYNWAVE
  Surcharge Method ......... EXTRAN
  Starting Date ............ 08/28/2015 08:00:00
  Ending Date .............. 08/28/2015 16:00:00
  Antecedent Dry Days ...... 8.0
  Report Time Step ......... 00:01:00
  Wet Time Step ............ 00:01:00
  Dry Time Step ............ 00:01:00
  Routing Time Step ........ 30.00 sec
  Variable Time Step ....... YES
  Maximum Trials ........... 8
  Number of Threads ........ 4
  Head Tolerance ........... 0.001500 m
  
  
  **************************        Volume         Depth
  Runoff Quantity Continuity     hectare-m            mm
  **************************     ---------       -------
  Total Precipitation ......         9.811       161.960
  Evaporation Loss .........         0.000         0.000
  Infiltration Loss ........         0.251         4.147
  Surface Runoff ...........         9.501       156.844
  Final Storage ............         0.061         1.009
  Continuity Error (%) .....        -0.025
  
  
  **************************        Volume        Volume
  Flow Routing Continuity        hectare-m      10^6 ltr
  **************************     ---------     ---------
  Dry Weather Inflow .......         0.630         6.296
  Wet Weather Inflow .......         9.500        95.006
  Groundwater Inflow .......         0.000         0.000
  RDII Inflow ..............         0.000         0.000
  External Inflow ..........         0.105         1.045
  External Outflow .........         3.365        33.653
  Flooding Loss ............         6.829        68.289
  Evaporation Loss .........         0.000         0.000
  Exfiltration Loss ........         0.000         0.000
  Initial Stored Volume ....         0.303         3.031
  Final Stored Volume ......         0.352         3.517
  Continuity Error (%) .....        -0.077
  
  
  *************************
  Highest Continuity Errors
  *************************
  Node YS02001884 (4.73%)
  Node YS02001583 (-2.85%)
  Node HS02004842 (1.60%)
  
  
  ***************************
  Time-Step Critical Elements
  ***************************
  Link WS02006280WS02006229 (35.71%)
  Link YS02001791YS02001793 (15.47%)
  Link WS02006238WS02006235 (10.25%)
  Link WS02004404WS02004405 (10.24%)
  Link WS02006252WS02006251 (9.13%)
  
  
  ********************************
  Highest Flow Instability Indexes
  ********************************
  Link WS02004404WS02004405 (37)
  Link WS02006238WS02006235 (36)
  Link YS02001602YS02001605 (35)
  Link YS02001605YS02001607 (34)
  Link YS02001607YS02001610 (33)
  
  
  *************************
  Routing Time Step Summary
  *************************
  Minimum Time Step           :     0.01 sec
  Average Time Step           :     2.57 sec
  Maximum Time Step           :     6.46 sec
  Percent in Steady State     :    -0.00
  Average Iterations per Step :     4.03
  Percent Not Converging      :    18.29
  
  
  ***************************
  Subcatchment Runoff Summary
  ***************************
  
  ------------------------------------------------------------------------------------------------------------------------------
                            Total      Total      Total      Total     Imperv       Perv      Total       Total     Peak  Runoff
                           Precip      Runon       Evap      Infil     Runoff     Runoff     Runoff      Runoff   Runoff   Coeff
  Subcatchment                 mm         mm         mm         mm         mm         mm         mm    10^6 ltr      LPS
  ------------------------------------------------------------------------------------------------------------------------------
  sub0                      76.87       0.00       0.00       1.01      70.25       4.37      74.62        0.06    44.14   0.971
  sub1                      76.87       0.00       0.00       1.72      67.17       6.74      73.91        0.49   299.72   0.961
  sub10                     76.87       0.00       0.00       1.22      69.44       4.94      74.38        0.82   509.44   0.968
  sub11                     76.87       0.00       0.00       1.20      69.46       4.95      74.42        0.86   567.80   0.968
  sub12                     76.87       0.00       0.00       1.95      65.71       8.05      73.76        0.64   454.16   0.959
  sub14                     76.87       0.00       0.00       1.37      68.70       5.55      74.25        0.71   452.09   0.966
  sub15                     76.87       0.00       0.00       5.31      52.84      17.76      70.60        1.21   695.25   0.918
  sub16                     76.87       0.00       0.00       5.50      50.60      19.87      70.47        0.74   466.02   0.917
  sub17                     76.87       0.00       0.00       5.36      51.35      19.24      70.59        0.61   378.45   0.918
  sub2                      76.87       0.00       0.00       7.56      47.53      20.88      68.41        0.64   305.83   0.890
  sub22                     76.87       0.00       0.00       8.03      43.04      25.03      68.07        4.30  2301.14   0.885
  sub23                     76.87       0.00       0.00       6.56      47.57      21.89      69.46        3.31  1906.34   0.904
  sub3                      76.87       0.00       0.00       8.23      47.49      20.22      67.71        1.52   660.30   0.881
  sub4                      76.87       0.00       0.00       1.91      67.00       6.55      73.55        1.53   731.54   0.957
  sub5                      76.87       0.00       0.00       1.06      70.19       4.32      74.51        0.84   516.16   0.969
  sub60                    232.27       0.00       0.00       1.95     203.24      25.93     229.17        3.01  2173.87   0.987
  sub61                    232.27       0.00       0.00       2.83     191.70      36.66     228.36        4.19  3028.83   0.983
  sub62                    232.27       0.00       0.00       1.30     212.44      17.29     229.73        6.29  4358.65   0.989
  sub63                    232.27       0.00       0.00       5.27     163.98      62.10     226.08        5.13  3564.97   0.973
  sub64                    232.27       0.00       0.00       2.66     196.26      32.19     228.45        5.49  3666.76   0.984
  sub65                    232.27       0.00       0.00       2.30     200.85      27.90     228.75        6.30  4128.78   0.985
  sub66                    232.27       0.00       0.00       6.62     163.85      60.74     224.60       10.47  5999.04   0.967
  sub67                    232.27       0.00       0.00       1.24     212.49      17.35     229.85        4.28  3167.19   0.990
  sub68                    232.27       0.00       0.00       2.35     198.61      30.18     228.78        6.30  4442.75   0.985
  sub69                    232.27       0.00       0.00       2.16     197.35      32.69     230.04        8.52  5501.10   0.990
  sub7                      76.87       0.00       0.00       1.35      68.72       5.57      74.29        0.25   168.15   0.966
  sub70                    232.27       0.00       0.00       7.35     153.15      71.63     224.78        6.49  3436.46   0.968
  sub71                    232.27       0.00       0.00       1.34     212.39      17.25     229.64        6.01  3957.10   0.989
  sub72                    232.27       0.00       0.00       1.19     214.63      15.07     229.70        3.16  1966.34   0.989
  sub8                      76.87       0.00       0.00       1.36      68.70       5.56      74.26        0.47   307.93   0.966
  sub9                      76.87       0.00       0.00       1.36      68.70       5.56      74.26        0.36   229.95   0.966
  
  
  ******************
  Node Depth Summary
  ******************
  
  ---------------------------------------------------------------------------------
                                 Average  Maximum  Maximum  Time of Max    Reported
                                   Depth    Depth      HGL   Occurrence   Max Depth
  Node                 Type       Meters   Meters   Meters  days hr:min      Meters
  ---------------------------------------------------------------------------------
  HS02004478           JUNCTION     0.28     1.60    10.83     0  01:56        1.58
  HS02004479           JUNCTION     0.36     1.70    10.90     0  01:45        1.67
  HS02004480           JUNCTION     0.32     1.68    10.92     0  01:45        1.64
  HS02004770           JUNCTION     0.32     1.42    11.25     0  01:43        1.42
  HS02004777           JUNCTION     0.34     1.48    11.28     0  01:43        1.48
  HS02004785           JUNCTION     0.23     1.49    11.39     0  01:43        1.38
  HS02004788           JUNCTION     0.20     1.42    11.32     0  01:43        1.37
  HS02004792           JUNCTION     0.27     1.60    11.12     0  01:43        1.60
  HS02004799           JUNCTION     0.39     1.76    10.97     0  01:45        1.76
  HS02004802           JUNCTION     0.38     1.81    10.94     0  01:56        1.80
  HS02004807           JUNCTION     0.35     1.92    11.09     0  01:45        1.92
  HS02004817           JUNCTION     0.66     2.41    11.26     0  01:54        2.41
  HS02004824           JUNCTION     0.23     2.01    11.41     0  01:49        2.01
  HS02004830           JUNCTION     0.22     2.00    11.47     0  01:56        1.99
  HS02004837           JUNCTION     0.19     1.98    11.56     0  01:45        1.92
  HS02004842           JUNCTION     0.49     2.22    11.49     0  01:45        2.22
  HS02004848           JUNCTION     0.17     2.07    11.67     0  01:45        1.91
  HS02004852           JUNCTION     0.18     2.12    11.63     0  01:45        1.96
  HS02004856           JUNCTION     0.24     2.07    11.50     0  01:45        2.03
  HS02004862           JUNCTION     0.20     2.00    11.38     0  01:45        2.00
  HS02004870           JUNCTION     0.19     2.10    11.39     0  01:45        2.01
  HS02004876           JUNCTION     0.24     2.23    11.26     0  01:45        2.11
  HS02004881           JUNCTION     0.17     1.89    10.91     0  01:45        1.86
  HS02004901           JUNCTION     0.33     1.42    11.24     0  01:43        1.42
  WS02001211           JUNCTION     0.65     0.82     5.66     0  01:54        0.82
  WS02001212           JUNCTION     0.39     0.58     5.65     0  01:53        0.58
  WS02001213           JUNCTION     0.62     0.88     5.64     0  01:53        0.88
  WS02003059           JUNCTION     0.68     0.95     5.63     0  01:53        0.95
  WS02003060           JUNCTION     0.40     0.70     5.63     0  01:54        0.70
  WS02003066           JUNCTION     0.25     0.46     6.01     0  01:50        0.46
  WS02003067           JUNCTION     0.57     0.89     6.21     0  01:49        0.89
  WS02003069           JUNCTION     0.45     0.79     5.37     0  01:54        0.79
  WS02003072           JUNCTION     0.51     0.82     5.19     0  01:55        0.82
  WS02003073           JUNCTION     0.31     0.52     4.59     0  01:55        0.52
  WS02004138           JUNCTION     0.13     0.14     7.39     0  00:29        0.14
  WS02004139           JUNCTION     0.58     0.75     5.66     0  01:53        0.75
  WS02004401           JUNCTION     0.84     1.95     7.95     0  01:50        1.95
  WS02004402           JUNCTION     0.85     1.89     7.85     0  01:56        1.89
  WS02004403           JUNCTION     0.85     1.82     7.75     0  01:33        1.81
  WS02004404           JUNCTION     0.91     1.88     7.73     0  01:33        1.84
  WS02004405           JUNCTION     0.90     1.84     7.69     0  01:33        1.77
  WS02004406           JUNCTION     0.88     1.65     7.48     0  01:50        1.64
  WS02004407           JUNCTION     0.30     0.99     7.30     0  01:50        0.99
  WS02004409           JUNCTION     0.59     1.46     7.23     0  01:56        1.46
  WS02004410           JUNCTION     0.59     1.33     7.05     0  01:50        1.32
  WS02004411           JUNCTION     0.59     1.23     6.91     0  01:50        1.22
  WS02004412           JUNCTION     0.59     1.12     6.76     0  01:49        1.12
  WS02004413           JUNCTION     0.72     1.15     6.62     0  01:50        1.15
  WS02006109           JUNCTION     1.10     2.64     9.26     0  01:43        2.64
  WS02006110           JUNCTION     1.02     2.42     9.01     0  01:56        2.42
  WS02006111           JUNCTION     0.51     1.83     8.54     0  01:49        1.82
  WS02006112           JUNCTION     1.08     2.49     8.37     0  01:50        2.49
  WS02006113           JUNCTION     0.58     1.94     8.83     0  01:33        1.88
  WS02006115           JUNCTION     0.78     2.22     8.35     0  01:33        2.22
  WS02006116           JUNCTION     0.84     2.33     8.37     0  01:33        2.33
  WS02006228           JUNCTION     1.18     3.03     9.68     0  01:45        3.03
  WS02006229           JUNCTION     1.20     3.24     9.93     0  01:56        3.22
  WS02006230           JUNCTION     1.12     2.65     9.39     0  01:40        2.65
  WS02006231           JUNCTION     0.84     2.21     9.33     0  02:00        2.21
  WS02006232           JUNCTION     0.93     2.18     9.22     0  01:40        2.18
  WS02006234           JUNCTION     0.82     1.96     9.12     0  01:30        1.96
  WS02006235           JUNCTION     0.84     1.94     9.10     0  02:00        1.94
  WS02006238           JUNCTION     0.86     2.07     9.21     0  01:56        2.07
  WS02006239           JUNCTION     0.79     2.03     9.24     0  01:30        1.95
  WS02006240           JUNCTION     0.74     2.10     9.39     0  01:30        1.65
  WS02006242           JUNCTION     0.76     1.55     8.82     0  01:30        1.55
  WS02006243           JUNCTION     0.66     1.48     8.90     0  01:30        1.42
  WS02006245           JUNCTION     0.63     1.56     9.04     0  01:31        1.56
  WS02006247           JUNCTION     0.63     1.47     8.97     0  01:31        1.41
  WS02006248           JUNCTION     0.58     1.10     8.69     0  01:31        1.10
  WS02006249           JUNCTION     0.59     1.09     8.69     0  01:31        1.09
  WS02006251           JUNCTION     0.74     2.19     9.86     0  01:45        2.16
  WS02006252           JUNCTION     0.50     1.50     9.74     0  00:00        1.50
  WS02006253           JUNCTION     0.84     3.14    10.78     0  01:50        3.13
  WS02006256           JUNCTION     1.36     2.35     9.28     0  00:00        2.35
  WS02006280           JUNCTION     0.36     1.76    10.03     0  01:56        1.74
  WS02006284           JUNCTION     0.61     1.96    10.36     0  01:56        1.94
  WS02006287           JUNCTION     0.35     1.75    10.71     0  01:56        1.73
  WSF200               JUNCTION     0.24     0.53     5.76     0  01:51        0.53
  YS02001580           JUNCTION     0.24     1.05     9.59     0  01:30        0.78
  YS02001583           JUNCTION     0.28     1.14     9.64     0  01:30        0.82
  YS02001586           JUNCTION     0.42     1.13     9.30     0  01:30        1.13
  YS02001590           JUNCTION     0.55     1.38     9.24     0  01:30        1.37
  YS02001593           JUNCTION     0.48     1.39     9.25     0  01:56        1.39
  YS02001596           JUNCTION     0.65     1.68     9.10     0  01:30        1.66
  YS02001600           JUNCTION     0.75     1.87     9.00     0  01:30        1.87
  YS02001601           JUNCTION     0.95     2.06     8.90     0  01:29        2.06
  YS02001602           JUNCTION     0.83     1.87     8.77     0  01:29        1.87
  YS02001605           JUNCTION     0.78     1.78     8.68     0  01:56        1.78
  YS02001607           JUNCTION     0.73     1.68     8.52     0  01:56        1.68
  YS02001610           JUNCTION     0.78     1.68     8.48     0  01:37        1.68
  YS02001613           JUNCTION     0.74     1.70     8.54     0  01:56        1.70
  YS02001616           JUNCTION     0.67     1.61     8.52     0  01:57        1.61
  YS02001619           JUNCTION     0.65     1.61     8.54     0  01:56        1.61
  YS02001622           JUNCTION     0.64     1.62     8.52     0  01:56        1.62
  YS02001625           JUNCTION     0.89     1.78     8.38     0  01:37        1.78
  YS02001629           JUNCTION     0.81     1.85     8.40     0  01:38        1.85
  YS02001633           JUNCTION     0.90     2.08     8.53     0  01:43        2.08
  YS02001641           JUNCTION     0.87     2.08     8.52     0  01:56        2.08
  YS02001644           JUNCTION     0.86     1.92     8.35     0  01:42        1.92
  YS02001647           JUNCTION     0.66     1.79     8.40     0  01:56        1.79
  YS02001649           JUNCTION     0.76     2.05     8.44     0  02:04        2.05
  YS02001652           JUNCTION     0.64     2.15     8.75     0  02:11        2.14
  YS02001655           JUNCTION     0.53     2.20     9.05     0  02:09        2.20
  YS02001658           JUNCTION     0.43     2.30     9.44     0  02:10        2.30
  YS02001661           JUNCTION     0.39     2.44     9.85     0  02:11        2.44
  YS02001664           JUNCTION     0.20     2.31    10.23     0  02:10        2.31
  YS02001745           JUNCTION     0.25     1.99     9.50     0  02:13        1.99
  YS02001748           JUNCTION     0.41     2.17     9.25     0  02:13        2.16
  YS02001751           JUNCTION     0.48     2.12     9.00     0  02:13        2.12
  YS02001754           JUNCTION     0.60     2.14     8.75     0  02:12        2.14
  YS02001757           JUNCTION     0.80     2.21     8.47     0  02:08        2.21
  YS02001759           JUNCTION     0.75     2.21     8.57     0  02:08        2.21
  YS02001762           JUNCTION     0.73     2.15     8.55     0  01:56        2.15
  YS02001765           JUNCTION     0.70     2.10     8.55     0  01:56        2.08
  YS02001767           JUNCTION     0.69     2.03     8.52     0  01:56        2.01
  YS02001770           JUNCTION     0.69     1.95     8.44     0  01:56        1.95
  YS02001774           JUNCTION     0.76     2.02     8.44     0  02:19        2.02
  YS02001779           JUNCTION     0.57     1.68     8.37     0  01:43        1.68
  YS02001783           JUNCTION     0.45     1.49     7.63     0  02:13        1.48
  YS02001784           JUNCTION     0.44     1.31     7.38     0  02:12        1.31
  YS02001786           JUNCTION     0.36     0.99     7.02     0  02:10        0.98
  YS02001788           JUNCTION     0.26     0.68     6.65     0  02:12        0.67
  YS02001790           JUNCTION     0.30     0.74     6.38     0  02:05        0.72
  YS02001791           JUNCTION     0.18     0.46     5.93     0  02:11        0.45
  YS02001793           JUNCTION     0.09     0.31     5.15     0  01:56        0.28
  YS02001882           JUNCTION     0.57     1.83     8.55     0  01:56        1.83
  YS02001884           JUNCTION     0.66     1.93     8.55     0  01:56        1.93
  YS02001887           JUNCTION     0.74     2.00     8.54     0  02:08        2.00
  YS02001890           JUNCTION     0.76     1.81     8.32     0  01:48        1.81
  YS02001895           JUNCTION     0.53     1.58     8.33     0  02:00        1.58
  YS02001898           JUNCTION     0.54     1.59     8.32     0  01:56        1.56
  YS02001901           JUNCTION     0.65     1.69     8.30     0  01:56        1.68
  YS02001904           JUNCTION     0.63     1.66     8.29     0  02:40        1.66
  YS02001907           JUNCTION     0.94     1.96     8.25     0  01:39        1.96
  YS02001910           JUNCTION     0.77     2.01     8.52     0  02:23        2.01
  YS02001915           JUNCTION     0.60     2.00     8.72     0  01:56        2.00
  YS02001918           JUNCTION     0.43     1.81     8.88     0  02:08        1.81
  YS02001920           JUNCTION     0.51     2.03     9.04     0  02:15        2.03
  YS02001923           JUNCTION     0.36     1.92     9.18     0  02:13        1.92
  YS02001926           JUNCTION     0.36     1.88     9.33     0  02:14        1.88
  YS02001929           JUNCTION     0.26     1.78     9.47     0  02:11        1.78
  YS02006553           JUNCTION     0.95     2.19     8.47     0  01:56        2.19
  YS02006556           JUNCTION     0.93     2.33     8.64     0  02:10        2.33
  YS02006558           JUNCTION     0.97     2.50     8.77     0  02:10        2.50
  YS02006561           JUNCTION     0.30     1.21     7.87     0  02:10        1.20
  YS02163301           JUNCTION     0.84     2.03     8.55     0  01:56        2.03
  YS02163601           JUNCTION     0.93     2.08     8.48     0  01:43        2.08
  YS02164001           JUNCTION     0.86     2.10     8.56     0  01:43        2.10
  YSB1154              JUNCTION     0.50     1.98    11.04     0  01:49        1.97
  YSB1171              JUNCTION     0.64     1.95    10.85     0  01:43        1.95
  YSB1174              JUNCTION     0.45     1.84    10.95     0  01:49        1.84
  YSB6556              JUNCTION     0.39     1.76    10.93     0  01:49        1.76
  CC-1                 OUTFALL      0.00     0.00     0.00     0  00:00        0.00
  CC-2                 OUTFALL      0.00     0.00     0.00     0  00:00        0.00
  JK-1                 OUTFALL      0.00     0.00     0.00     0  00:00        0.00
  JK-2                 OUTFALL      0.00     0.00     0.00     0  00:00        0.00
  WSC                  OUTFALL      0.31     0.52     1.19     0  01:55        0.52
  CC-storage           STORAGE      1.17     2.27     7.77     0  02:48        2.27
  JK-storage           STORAGE      2.35     4.24     5.04     0  01:56        4.19
  XR-storage           STORAGE      7.88     9.26     7.26     0  08:00        9.26
  
  
  *******************
  Node Inflow Summary
  *******************
  
  -------------------------------------------------------------------------------------------------
                                  Maximum  Maximum                  Lateral       Total        Flow
                                  Lateral    Total  Time of Max      Inflow      Inflow     Balance
                                   Inflow   Inflow   Occurrence      Volume      Volume       Error
  Node                 Type           LPS      LPS  days hr:min    10^6 ltr    10^6 ltr     Percent
  -------------------------------------------------------------------------------------------------
  HS02004478           JUNCTION      0.00  2319.87     0  01:56           0        9.68      -0.007
  HS02004479           JUNCTION      0.00   502.93     0  01:45           0       0.941       0.118
  HS02004480           JUNCTION      0.00  2150.27     0  01:44           0         7.1       0.030
  HS02004770           JUNCTION   1906.34  1906.34     0  01:51        3.31        3.56       0.084
  HS02004777           JUNCTION      0.03   772.62     0  01:43    0.000864        2.01       0.255
  HS02004785           JUNCTION      0.15   787.44     0  01:42     0.00432        2.01       0.023
  HS02004788           JUNCTION    696.92   869.62     0  01:50        1.26        3.27      -0.006
  HS02004792           JUNCTION   2301.42  3161.98     0  01:51        4.31        7.57       0.008
  HS02004799           JUNCTION    452.09  1772.32     0  01:44       0.707        6.51       0.043
  HS02004802           JUNCTION      0.00  1244.85     0  01:56           0        2.77       0.144
  HS02004807           JUNCTION    567.80  1760.00     0  01:50       0.865        3.05       0.134
  HS02004817           JUNCTION      0.60  1197.03     0  01:54      0.0173        2.24       0.759
  HS02004824           JUNCTION    731.59  1308.62     0  01:52        1.54        2.46       0.031
  HS02004830           JUNCTION      0.15   686.13     0  01:44     0.00432        1.13       0.114
  HS02004837           JUNCTION    515.79   899.54     0  01:43           1        1.46       0.070
  HS02004842           JUNCTION      0.00   887.26     0  01:44           0       0.817       1.628
  HS02004848           JUNCTION    660.30  1117.91     0  01:44        1.52        2.11      -0.007
  HS02004852           JUNCTION      0.00  1111.93     0  01:45           0        1.89       0.014
  HS02004856           JUNCTION    229.95  1231.66     0  01:45       0.357        2.25       0.017
  HS02004862           JUNCTION    306.03  1269.87     0  01:45       0.643        2.89      -0.042
  HS02004870           JUNCTION    307.93  1297.61     0  01:45       0.475        3.34      -0.021
  HS02004876           JUNCTION    299.72  1512.53     0  01:53       0.491        3.83       0.030
  HS02004881           JUNCTION    168.15  1664.58     0  01:50        0.25        4.08      -0.003
  HS02004901           JUNCTION    466.02   714.75     0  01:50       0.738        1.15       0.156
  WS02001211           JUNCTION      7.35   211.27     0  01:39       0.212        5.44       0.611
  WS02001212           JUNCTION      0.00   207.23     0  03:41           0        5.41       0.290
  WS02001213           JUNCTION      0.00   209.20     0  03:41           0        5.39       0.331
  WS02003059           JUNCTION      0.00   217.54     0  03:40           0        5.39       0.595
  WS02003060           JUNCTION     16.53  1535.69     0  01:53       0.476        15.6       0.093
  WS02003066           JUNCTION      0.00  1334.02     0  01:50           0        9.79       0.015
  WS02003067           JUNCTION      0.00  1334.05     0  01:50           0         9.8       0.044
  WS02003069           JUNCTION      0.32  1535.46     0  01:54     0.00922        15.6       0.098
  WS02003072           JUNCTION      0.00  1535.15     0  01:54           0        15.6       0.133
  WS02003073           JUNCTION      1.82  1536.99     0  01:55      0.0524        15.6       0.138
  WS02004138           JUNCTION      0.00   380.00     0  00:00           0        5.25       0.052
  WS02004139           JUNCTION      0.32   190.95     0  00:29     0.00924        5.26       0.509
  WS02004401           JUNCTION      0.00  1333.90     0  01:50           0         9.9       0.102
  WS02004402           JUNCTION      0.00  1334.14     0  01:50           0        9.89       0.106
  WS02004403           JUNCTION      0.00  1334.01     0  01:50           0        9.88       0.099
  WS02004404           JUNCTION      0.16  1334.72     0  01:50     0.00467        9.87       0.087
  WS02004405           JUNCTION      0.04  1334.79     0  01:50      0.0011        9.86       0.119
  WS02004406           JUNCTION      0.00  1334.69     0  01:50           0        9.85       0.212
  WS02004407           JUNCTION      0.00  1334.89     0  01:50           0        9.83       0.014
  WS02004409           JUNCTION      0.00  1334.02     0  01:50           0        9.83       0.031
  WS02004410           JUNCTION      0.00  1334.06     0  01:51           0        9.83       0.048
  WS02004411           JUNCTION      0.00  1334.20     0  01:50           0        9.82       0.060
  WS02004412           JUNCTION      0.00  1333.99     0  01:50           0        9.82       0.079
  WS02004413           JUNCTION      0.00  1334.31     0  01:50           0        9.81       0.141
  WS02006109           JUNCTION      1.23  1290.91     0  01:48      0.0354         9.7       0.095
  WS02006110           JUNCTION      0.00  1124.34     0  02:15           0        9.33       0.082
  WS02006111           JUNCTION      0.00  1124.91     0  02:15           0        9.32       0.004
  WS02006112           JUNCTION    378.45  1333.89     0  01:50       0.606        9.93       0.200
  WS02006113           JUNCTION      0.00  1124.76     0  02:15           0        9.32       0.027
  WS02006115           JUNCTION      0.00  1333.60     0  01:50           0        9.91       0.069
  WS02006116           JUNCTION      0.00  1334.66     0  01:50           0         9.9       0.007
  WS02006228           JUNCTION      0.00  1289.91     0  01:48           0        9.66       0.045
  WS02006229           JUNCTION      0.00  2308.15     0  01:47           0        12.4       0.063
  WS02006230           JUNCTION     10.28  1028.25     0  01:56       0.296        5.59       0.184
  WS02006231           JUNCTION      0.00   493.19     0  03:34           0        4.13      -0.174
  WS02006232           JUNCTION      0.00   493.18     0  03:34           0        4.13       0.155
  WS02006234           JUNCTION      0.00   493.14     0  03:34           0        4.13      -0.170
  WS02006235           JUNCTION      0.00   493.07     0  03:34           0        4.27       0.187
  WS02006238           JUNCTION      0.00   424.46     0  03:36           0        3.56      -0.088
  WS02006239           JUNCTION      0.00   425.21     0  03:36           0        3.52      -0.054
  WS02006240           JUNCTION      0.00   424.54     0  03:36           0        3.48      -0.038
  WS02006242           JUNCTION      0.00   424.68     0  03:36           0        3.45      -0.012
  WS02006243           JUNCTION      0.00   424.81     0  03:36           0        2.96      -0.101
  WS02006245           JUNCTION      0.00   424.69     0  03:35           0        2.96       0.228
  WS02006247           JUNCTION      0.00   424.90     0  03:36           0        2.95       0.000
  WS02006248           JUNCTION      0.00   425.30     0  03:36           0        3.26      -0.001
  WS02006249           JUNCTION      0.00  1379.16     0  01:50           0        7.41       0.054
  WS02006251           JUNCTION      0.08  1708.04     0  01:50     0.00222        7.65      -0.019
  WS02006252           JUNCTION      0.00   729.57     0  01:50           0        4.29       0.001
  WS02006253           JUNCTION     44.14  1708.48     0  01:50      0.0604        4.15       0.000
  WS02006256           JUNCTION      0.00   300.00     0  00:00           0        2.55      -0.110
  WS02006280           JUNCTION      0.00  2306.94     0  01:47           0        9.66       0.009
  WS02006284           JUNCTION      0.10  2306.52     0  01:48     0.00275        9.66      -0.005
  WS02006287           JUNCTION      0.00  2309.01     0  01:56           0        9.66       0.009
  WSF200               JUNCTION      0.00  1334.00     0  01:50           0        9.79       0.006
  YS02001580           JUNCTION      0.00    63.14     0  01:29           0     0.00434       0.044
  YS02001583           JUNCTION      0.00    96.36     0  01:29           0      0.0163      -2.773
  YS02001586           JUNCTION   3436.46  3436.49     0  02:14        6.49        6.51       0.017
  YS02001590           JUNCTION      0.00   318.31     0  02:40           0        2.32      -0.025
  YS02001593           JUNCTION      0.00   319.80     0  01:56           0        2.32       0.002
  YS02001596           JUNCTION      0.00   320.00     0  01:56           0        2.32      -0.009
  YS02001600           JUNCTION      0.00   318.25     0  01:56           0        2.32       0.005
  YS02001601           JUNCTION   5501.10  5818.72     0  02:13        8.52        10.8       0.008
  YS02001602           JUNCTION      0.00   503.93     0  01:29           0        3.35       0.012
  YS02001605           JUNCTION      0.00   503.76     0  01:29           0        3.02       0.016
  YS02001607           JUNCTION      0.00   503.64     0  01:29           0        3.02       0.057
  YS02001610           JUNCTION      0.00   955.97     0  02:21           0        4.68       0.054
  YS02001613           JUNCTION      0.00   619.74     0  02:31           0         3.2       0.048
  YS02001616           JUNCTION      0.00   620.25     0  02:19           0         3.2       0.008
  YS02001619           JUNCTION   5999.04  5999.04     0  02:14        10.5          12      -0.001
  YS02001622           JUNCTION      0.00  1053.95     0  02:30           0        6.97      -0.002
  YS02001625           JUNCTION      0.00  1505.49     0  02:22           0         8.2       0.147
  YS02001629           JUNCTION      0.00  1138.98     0  02:18           0        4.81      -0.019
  YS02001633           JUNCTION   4128.98  4128.98     0  02:13         6.3        9.01       0.033
  YS02001641           JUNCTION      0.00  1254.99     0  01:35           0        6.04       0.044
  YS02001644           JUNCTION   3666.80  5419.01     0  02:13        5.49        12.7       0.026
  YS02001647           JUNCTION      0.00  1583.48     0  01:37           0        6.76       0.000
  YS02001649           JUNCTION      0.00  3232.50     0  02:14           0        10.8      -0.001
  YS02001652           JUNCTION      0.00  2429.24     0  02:12           0        4.87      -0.030
  YS02001655           JUNCTION      0.15  2731.44     0  02:16     0.00443        4.99       0.018
  YS02001658           JUNCTION      0.00  2783.77     0  02:15           0           5      -0.021
  YS02001661           JUNCTION      0.00  2783.75     0  02:14           0        4.99      -0.064
  YS02001664           JUNCTION   3564.97  3564.97     0  02:13        5.13        5.13       0.010
  YS02001745           JUNCTION   2173.88  2173.88     0  02:13        3.01        3.01       0.036
  YS02001748           JUNCTION      0.04  2174.43     0  02:13      0.0013        3.01      -0.065
  YS02001751           JUNCTION      0.01  2173.20     0  02:13    0.000317        3.02       0.026
  YS02001754           JUNCTION      0.26  2174.91     0  02:13     0.00749        3.03      -0.050
  YS02001757           JUNCTION      0.00  3583.95     0  02:13           0        16.8       0.012
  YS02001759           JUNCTION   3028.87  3028.87     0  02:13        4.19        6.31      -0.009
  YS02001762           JUNCTION      0.00   722.93     0  02:15           0        2.67      -0.004
  YS02001765           JUNCTION      0.00   722.25     0  02:15           0        2.67      -0.009
  YS02001767           JUNCTION      0.54   723.09     0  02:15      0.0154        2.67      -0.006
  YS02001770           JUNCTION   4358.80  5079.00     0  02:13         6.3        6.89      -0.015
  YS02001774           JUNCTION      0.00   852.07     0  02:25           0        1.92       0.037
  YS02001779           JUNCTION      0.01   851.73     0  02:07    0.000144        1.88      -0.007
  YS02001783           JUNCTION      0.00  1321.66     0  02:15           0        7.48       0.003
  YS02001784           JUNCTION      1.06  1322.56     0  02:15      0.0305        7.51       0.006
  YS02001786           JUNCTION      0.06  1322.64     0  02:15     0.00162        7.51       0.010
  YS02001788           JUNCTION      0.07  1322.58     0  02:12     0.00204        7.51       0.004
  YS02001790           JUNCTION      0.15  1328.24     0  02:13     0.00446        7.52       0.023
  YS02001791           JUNCTION      0.00  1369.37     0  02:11           0        7.52      -0.042
  YS02001793           JUNCTION      0.00  1354.88     0  02:11           0        7.52       0.004
  YS02001882           JUNCTION      0.00    33.84     0  01:30           0      0.0153       3.971
  YS02001884           JUNCTION      0.00    47.41     0  01:32           0      0.0515       4.961
  YS02001887           JUNCTION   3167.64  3167.64     0  02:13        4.29        4.32       0.099
  YS02001890           JUNCTION      0.00  2052.03     0  02:16           0        4.03       0.127
  YS02001895           JUNCTION      0.00   532.92     0  01:56           0        2.41       0.083
  YS02001898           JUNCTION      0.00   527.83     0  01:56           0        2.41       0.002
  YS02001901           JUNCTION      0.00   518.87     0  02:00           0        2.41       0.141
  YS02001904           JUNCTION      0.00   518.83     0  02:00           0        2.42       0.115
  YS02001907           JUNCTION      0.00  4670.36     0  02:15           0        11.1       0.163
  YS02001910           JUNCTION      0.00  1993.14     0  02:24           0        6.95       0.102
  YS02001915           JUNCTION   3957.12  5178.80     0  02:13        6.01        8.98       0.016
  YS02001918           JUNCTION      0.00  1681.63     0  02:16           0        3.19       0.006
  YS02001920           JUNCTION      2.87  1681.89     0  02:15      0.0827        3.19       0.030
  YS02001923           JUNCTION      0.04  1678.99     0  02:15     0.00109        3.11      -0.004
  YS02001926           JUNCTION      0.05  1678.58     0  02:15      0.0015        3.11       0.006
  YS02001929           JUNCTION   1966.34  1966.34     0  02:13        3.16        3.16      -0.002
  YS02006553           JUNCTION      0.00  2160.44     0  02:15           0        4.78       0.247
  YS02006556           JUNCTION      0.00  2161.04     0  02:12           0         4.8       0.165
  YS02006558           JUNCTION   4443.63  4443.63     0  02:13        6.32        9.39       0.035
  YS02006561           JUNCTION      0.00  1321.43     0  02:13           0        7.48       0.002
  YS02163301           JUNCTION      0.00  1138.88     0  02:20           0        4.81       0.026
  YS02163601           JUNCTION      0.11  1256.08     0  01:35     0.00317        6.03       0.078
  YS02164001           JUNCTION      0.00  1255.56     0  01:35           0        6.03       0.027
  YSB1154              JUNCTION    516.16   516.16     0  01:51       0.844       0.845       0.180
  YSB1171              JUNCTION      0.00  1195.52     0  01:50           0        1.67       0.376
  YSB1174              JUNCTION    454.16   454.16     0  01:50       0.645       0.645       0.195
  YSB6556              JUNCTION      0.00   516.29     0  01:51           0       0.846       0.140
  CC-1                 OUTFALL       0.00   683.00     0  00:00           0        6.64       0.000
  CC-2                 OUTFALL       0.00   683.00     0  00:00           0        6.38       0.000
  JK-1                 OUTFALL       0.00  1000.00     0  00:00           0        4.99       0.000
  JK-2                 OUTFALL       0.00  1000.00     0  00:00           0      0.0484       0.000
  WSC                  OUTFALL       0.00  1536.91     0  01:55           0        15.6       0.000
  CC-storage           STORAGE       0.00  2837.49     0  01:49           0        18.7      -0.125
  JK-storage           STORAGE       0.00  1353.68     0  02:11           0        7.67      -0.121
  XR-storage           STORAGE     200.00   200.00     0  00:00        5.76        6.36       0.001
  
  
  **********************
  Node Surcharge Summary
  **********************
  
  Surcharging occurs when water rises above the top of the highest conduit.
  ---------------------------------------------------------------------
                                               Max. Height   Min. Depth
                                   Hours       Above Crown    Below Rim
  Node                 Type      Surcharged         Meters       Meters
  ---------------------------------------------------------------------
  HS02004478           JUNCTION        0.61          0.677        0.263
  HS02004479           JUNCTION        0.75          0.896        0.154
  HS02004480           JUNCTION        0.79          0.966        0.134
  HS02004770           JUNCTION        0.69          0.720        0.000
  HS02004777           JUNCTION        0.69          0.780        0.000
  HS02004785           JUNCTION        0.64          0.790        0.000
  HS02004788           JUNCTION        0.63          0.720        0.000
  HS02004792           JUNCTION        0.75          0.900        0.000
  HS02004799           JUNCTION        0.88          1.060        0.000
  HS02004802           JUNCTION        0.79          1.097        0.113
  HS02004807           JUNCTION        0.78          1.220        0.000
  HS02004817           JUNCTION        1.44          1.714        0.026
  HS02004824           JUNCTION        0.63          1.310        0.000
  HS02004830           JUNCTION        0.60          1.297        0.033
  HS02004837           JUNCTION        0.56          1.280        0.060
  HS02004842           JUNCTION        0.70          1.520        0.000
  HS02004848           JUNCTION        0.53          1.370        0.000
  HS02004852           JUNCTION        0.55          1.420        0.000
  HS02004856           JUNCTION        0.54          1.300        0.000
  HS02004862           JUNCTION        0.58          1.300        0.000
  HS02004870           JUNCTION        0.60          1.400        0.000
  HS02004876           JUNCTION        0.68          1.530        0.030
  HS02004881           JUNCTION        0.66          1.186        0.264
  HS02004901           JUNCTION        0.70          0.720        0.000
  WS02004401           JUNCTION        1.85          0.952        0.708
  WS02004402           JUNCTION        1.89          0.892        0.848
  WS02004403           JUNCTION        1.90          0.822        1.208
  WS02004404           JUNCTION        2.09          0.883        1.897
  WS02004405           JUNCTION        2.06          0.844        1.956
  WS02004406           JUNCTION        2.06          0.646        1.804
  WS02004409           JUNCTION        1.20          0.464        1.896
  WS02004410           JUNCTION        1.14          0.327        2.213
  WS02004411           JUNCTION        1.04          0.231        2.299
  WS02004412           JUNCTION        0.92          0.120        2.190
  WS02004413           JUNCTION        1.54          0.155        2.045
  WS02006109           JUNCTION        2.79          1.820        0.000
  WS02006110           JUNCTION        2.20          1.512        0.338
  WS02006111           JUNCTION        1.50          1.020        0.850
  WS02006112           JUNCTION        2.53          1.486        0.194
  WS02006113           JUNCTION        1.52          1.138        0.792
  WS02006115           JUNCTION        1.70          1.206        1.044
  WS02006116           JUNCTION        1.72          1.267        1.023
  WS02006228           JUNCTION        2.78          2.200        0.000
  WS02006229           JUNCTION        1.12          1.056        0.014
  WS02006230           JUNCTION        2.08          1.570        0.000
  WS02006231           JUNCTION        2.21          1.495        0.035
  WS02006232           JUNCTION        2.74          1.480        0.000
  WS02006234           JUNCTION        2.68          1.240        0.000
  WS02006235           JUNCTION        2.70          1.229        0.061
  WS02006238           JUNCTION        2.72          1.346        0.084
  WS02006239           JUNCTION        2.70          1.290        0.000
  WS02006240           JUNCTION        2.70          1.390        0.000
  WS02006242           JUNCTION        2.71          0.820        0.000
  WS02006243           JUNCTION        2.68          0.770        0.000
  WS02006245           JUNCTION        2.68          0.850        0.000
  WS02006247           JUNCTION        2.69          0.760        0.000
  WS02006248           JUNCTION        2.67          0.380        0.000
  WS02006249           JUNCTION        2.67          0.390        0.000
  WS02006251           JUNCTION        2.36          1.158        0.022
  WS02006252           JUNCTION        2.79          1.100        0.000
  WS02006253           JUNCTION        2.42          2.098        0.382
  WS02006256           JUNCTION        5.21          2.050        0.000
  WS02006280           JUNCTION        0.91          0.707        0.073
  WS02006284           JUNCTION        0.82          0.681        0.119
  WS02006287           JUNCTION        0.72          0.750        0.140
  YS02001580           JUNCTION        1.56          0.450        0.000
  YS02001583           JUNCTION        1.57          0.500        0.000
  YS02001586           JUNCTION        1.70          0.510        0.000
  YS02001590           JUNCTION        1.78          0.733        0.017
  YS02001593           JUNCTION        1.77          0.771        0.069
  YS02001596           JUNCTION        1.89          0.952        0.118
  YS02001600           JUNCTION        2.03          1.190        0.000
  YS02001601           JUNCTION        2.28          1.440        0.000
  YS02001602           JUNCTION        2.22          1.270        0.000
  YS02001605           JUNCTION        2.18          1.180        0.000
  YS02001607           JUNCTION        1.80          0.676        0.004
  YS02001610           JUNCTION        1.83          0.680        0.000
  YS02001613           JUNCTION        1.80          0.700        0.000
  YS02001616           JUNCTION        1.76          0.610        0.000
  YS02001619           JUNCTION        1.75          0.610        0.000
  YS02001622           JUNCTION        1.75          0.620        0.000
  YS02001625           JUNCTION        1.94          0.780        0.000
  YS02001629           JUNCTION        1.68          0.470        0.000
  YS02001633           JUNCTION        2.00          1.060        0.000
  YS02001641           JUNCTION        1.97          1.081        0.019
  YS02001644           JUNCTION        1.95          0.920        0.000
  YS02001647           JUNCTION        1.71          0.791        0.109
  YS02001649           JUNCTION        1.84          1.050        0.000
  YS02001652           JUNCTION        1.66          1.122        0.008
  YS02001655           JUNCTION        1.52          1.200        0.000
  YS02001658           JUNCTION        1.27          1.300        0.000
  YS02001661           JUNCTION        0.53          1.372        0.018
  YS02001664           JUNCTION        0.29          1.310        0.000
  YS02001745           JUNCTION        0.31          0.987        0.363
  YS02001748           JUNCTION        1.11          1.094        0.096
  YS02001751           JUNCTION        1.43          1.116        0.084
  YS02001754           JUNCTION        1.61          1.092        0.058
  YS02001757           JUNCTION        1.92          1.210        0.000
  YS02001759           JUNCTION        1.84          1.210        0.000
  YS02001762           JUNCTION        1.81          1.150        0.000
  YS02001765           JUNCTION        1.77          1.100        0.000
  YS02001767           JUNCTION        1.74          1.030        0.000
  YS02001770           JUNCTION        1.72          0.920        0.000
  YS02001774           JUNCTION        1.79          1.020        0.030
  YS02001779           JUNCTION        1.59          0.680        0.000
  YS02001783           JUNCTION        1.48          0.686        0.914
  YS02001784           JUNCTION        1.45          0.513        0.977
  YS02001786           JUNCTION        1.26          0.189        1.241
  YS02001882           JUNCTION        1.39          0.830        0.000
  YS02001884           JUNCTION        1.40          0.870        0.000
  YS02001887           JUNCTION        1.46          0.950        0.000
  YS02001890           JUNCTION        1.48          0.760        0.000
  YS02001895           JUNCTION        1.37          0.580        0.170
  YS02001898           JUNCTION        1.36          0.558        0.182
  YS02001901           JUNCTION        1.44          0.690        0.180
  YS02001904           JUNCTION        1.43          0.656        0.194
  YS02001907           JUNCTION        1.72          0.950        0.000
  YS02001910           JUNCTION        1.52          1.013        0.087
  YS02001915           JUNCTION        1.38          1.000        0.000
  YS02001918           JUNCTION        1.23          0.810        0.000
  YS02001920           JUNCTION        1.26          1.033        0.107
  YS02001923           JUNCTION        0.61          0.711        0.109
  YS02001926           JUNCTION        0.66          0.882        0.018
  YS02001929           JUNCTION        0.46          0.780        0.000
  YS02006553           JUNCTION        1.73          1.190        0.000
  YS02006556           JUNCTION        1.63          1.293        0.057
  YS02006558           JUNCTION        1.61          1.400        0.000
  YS02006561           JUNCTION        1.19          0.410        0.740
  YS02163301           JUNCTION        1.97          1.030        0.000
  YS02163601           JUNCTION        2.05          1.080        0.000
  YS02164001           JUNCTION        1.96          1.100        0.000
  YSB1154              JUNCTION        1.02          1.280        0.120
  YSB1171              JUNCTION        1.03          1.100        0.000
  YSB1174              JUNCTION        0.92          1.138        0.112
  YSB6556              JUNCTION        0.85          1.065        0.035
  
  
  *********************
  Node Flooding Summary
  *********************
  
  Flooding refers to all water that overflows a node, whether it ponds or not.
  --------------------------------------------------------------------------
                                                             Total   Maximum
                                 Maximum   Time of Max       Flood    Ponded
                        Hours       Rate    Occurrence      Volume     Depth
  Node                 Flooded       LPS   days hr:min    10^6 ltr    Meters
  --------------------------------------------------------------------------
  HS02004770              0.45   1487.46      0  01:51       1.136     0.000
  HS02004777              0.01     61.76      0  01:43       0.001     0.000
  HS02004785              0.01    221.38      0  01:43       0.001     0.000
  HS02004788              0.01    244.14      0  01:43       0.002     0.000
  HS02004792              0.47   2019.79      0  01:51       1.767     0.000
  HS02004799              0.25    295.32      0  01:50       0.169     0.000
  HS02004807              0.18    529.70      0  01:50       0.229     0.000
  HS02004824              0.10    112.71      0  01:52       0.028     0.000
  HS02004842              0.10    139.53      0  01:45       0.022     0.000
  HS02004848              0.01     46.86      0  01:45       0.000     0.000
  HS02004852              0.01    179.29      0  01:45       0.001     0.000
  HS02004856              0.01    233.49      0  01:45       0.001     0.000
  HS02004862              0.09    188.91      0  01:45       0.028     0.000
  HS02004870              0.01    404.89      0  01:45       0.001     0.000
  HS02004901              0.55    714.75      0  01:50       0.905     0.000
  WS02006109              0.53    333.92      0  01:50       0.356     0.000
  WS02006228              0.01      2.15      0  01:56       0.000     0.000
  WS02006230              0.82    575.43      0  01:56       1.193     0.000
  WS02006232              0.19      1.26      0  01:56       0.000     0.000
  WS02006234              0.91    128.63      0  02:01       0.396     0.000
  WS02006239              0.01     60.50      0  01:30       0.000     0.000
  WS02006240              0.01    117.58      0  01:30       0.000     0.000
  WS02006242              1.04    249.26      0  01:30       0.475     0.000
  WS02006243              0.01    235.32      0  01:30       0.001     0.000
  WS02006245              0.01    146.18      0  01:31       0.000     0.000
  WS02006247              0.01    222.04      0  01:31       0.000     0.000
  WS02006248              1.46    342.07      0  01:40       1.503     0.000
  WS02006249              2.11   1318.07      0  01:50       5.339     0.000
  WS02006252              0.59    729.25      0  01:50       0.799     0.000
  WS02006256              2.36    293.19      0  00:00       1.328     0.000
  YS02001580              0.01     55.43      0  01:30       0.000     0.000
  YS02001583              0.01     44.12      0  01:30       0.000     0.000
  YS02001586              1.40   3117.98      0  02:14       4.170     0.000
  YS02001600              0.01      0.49      0  01:30       0.000     0.000
  YS02001601              1.64   5419.53      0  02:13       7.487     0.000
  YS02001602              1.53     62.32      0  02:40       0.331     0.000
  YS02001605              0.01      0.16      0  02:40       0.000     0.000
  YS02001610              1.45    955.57      0  02:21       3.136     0.000
  YS02001613              0.01      0.86      0  01:56       0.000     0.000
  YS02001616              0.17      3.85      0  02:00       0.000     0.000
  YS02001619              0.56   4328.78      0  02:14       3.379     0.000
  YS02001622              0.01      0.25      0  01:56       0.000     0.000
  YS02001625              1.47   1505.27      0  02:22       5.488     0.000
  YS02001629              0.58    686.82      0  02:18       0.877     0.000
  YS02001633              0.25   2084.46      0  02:13       0.869     0.000
  YS02001644              1.02   5417.31      0  02:13       7.073     0.000
  YS02001649              0.28   2385.66      0  02:14       1.387     0.000
  YS02001655              0.13    303.23      0  02:14       0.116     0.000
  YS02001658              0.09     52.18      0  02:15       0.017     0.000
  YS02001664              0.09    779.25      0  02:13       0.138     0.000
  YS02001757              0.05    199.30      0  02:13       0.019     0.000
  YS02001759              0.11    898.48      0  02:13       0.179     0.000
  YS02001762              0.06     20.54      0  01:56       0.000     0.000
  YS02001765              0.01     18.85      0  01:56       0.000     0.000
  YS02001767              0.01     12.50      0  01:56       0.000     0.000
  YS02001770              0.45   4224.81      0  02:13       2.884     0.000
  YS02001779              0.87    851.46      0  02:07       1.859     0.000
  YS02001882              0.01      0.47      0  02:15       0.000     0.000
  YS02001884              0.01      1.16      0  01:56       0.000     0.000
  YS02001887              0.13   1113.37      0  02:13       0.254     0.000
  YS02001890              0.67   1536.87      0  02:11       1.609     0.000
  YS02001907              1.15   4669.44      0  02:14       7.979     0.000
  YS02001915              0.39   3185.05      0  02:13       2.031     0.000
  YS02001918              0.19    459.90      0  02:16       0.210     0.000
  YS02001929              0.09    288.84      0  02:13       0.055     0.000
  YS02006553              0.01      0.72      0  01:56       0.000     0.000
  YS02006558              0.09    960.08      0  02:13       0.166     0.000
  YS02163301              0.01      0.92      0  01:56       0.000     0.000
  YS02163601              0.01      6.69      0  01:43       0.000     0.000
  YS02164001              0.01      5.76      0  01:43       0.000     0.000
  YSB1171                 0.36   1195.35      0  01:50       0.896     0.000
  
  
  **********************
  Storage Volume Summary
  **********************
  
  --------------------------------------------------------------------------------------------------
                         Average     Avg  Evap Exfil       Maximum     Max    Time of Max    Maximum
                          Volume    Pcnt  Pcnt  Pcnt        Volume    Pcnt     Occurrence    Outflow
  Storage Unit           1000 m3    Full  Loss  Loss       1000 m3    Full    days hr:min        LPS
  --------------------------------------------------------------------------------------------------
  CC-storage               3.273      51     0     0         6.338      99       0  02:48    1783.53
  JK-storage               0.118      40     0     0         0.213      73       0  01:56    2300.00
  XR-storage               0.946      66     0     0         1.111      77       0  08:00     380.00
  
  
  ***********************
  Outfall Loading Summary
  ***********************
  
  -----------------------------------------------------------
                         Flow       Avg       Max       Total
                         Freq      Flow      Flow      Volume
  Outfall Node           Pcnt       LPS       LPS    10^6 ltr
  -----------------------------------------------------------
  CC-1                  48.15    683.00    683.00       6.636
  CC-2                  46.12    683.00    683.00       6.382
  JK-1                  27.47   1000.00   1000.00       4.990
  JK-2                   0.19   1000.00   1000.00       0.048
  WSC                   99.95    678.51   1536.91      15.597
  -----------------------------------------------------------
  System                44.37   4044.51   1536.91      33.653
  
  
  ********************
  Link Flow Summary
  ********************
  
  -----------------------------------------------------------------------------
                                 Maximum  Time of Max   Maximum    Max/    Max/
                                  |Flow|   Occurrence   |Veloc|    Full    Full
  Link                 Type          LPS  days hr:min     m/sec    Flow   Depth
  -----------------------------------------------------------------------------
  1                    CONDUIT   1536.91     0  01:55      3.72    0.54    0.52
  HS02004478WS02006287 CONDUIT   2309.01     0  01:56      2.59    0.65    1.00
  HS02004479HS02004480 CONDUIT    504.26     0  01:45      0.72    0.49    1.00
  HS02004480HS02004478 CONDUIT   2137.85     0  01:44      3.05    9.00    1.00
  HS02004770HS02004777 CONDUIT    772.59     0  01:43      1.10    1.41    1.00
  HS02004777HS02004785 CONDUIT    787.29     0  01:42      1.17    0.97    1.00
  HS02004785HS02004788 CONDUIT    637.71     0  01:43      1.35    4.81    1.00
  HS02004788HS02004792 CONDUIT    869.46     0  01:50      1.43    0.58    1.00
  HS02004792HS02004799 CONDUIT   1589.19     0  01:44      2.27    0.97    1.00
  HS02004799HS02004480 CONDUIT   1769.88     0  01:44      2.53    2.24    1.00
  HS02004802HS02004478 CONDUIT   1240.38     0  01:56      1.77    1.09    1.00
  HS02004807HS02004802 CONDUIT   1244.85     0  01:56      1.78    2.38    1.00
  HS02004817HS02004807 CONDUIT   1197.00     0  01:54      1.71    0.71    1.00
  HS02004817HS02004824 CONDUIT   1196.43     0  01:54      1.71    0.54    1.00
  HS02004824HS02004830 CONDUIT    685.98     0  01:44      1.00    0.90    1.00
  HS02004830HS02004837 CONDUIT    695.21     0  01:43      1.07    0.69    1.00
  HS02004837HS02004842 CONDUIT    887.26     0  01:44      1.27    0.53    1.00
  HS02004842HS02004848 CONDUIT    885.58     0  01:44      1.41    0.52    1.00
  HS02004848HS02004852 CONDUIT   1111.93     0  01:45      1.65    1.25    1.00
  HS02004852HS02004856 CONDUIT   1118.19     0  01:45      1.60    1.28    1.00
  HS02004856HS02004862 CONDUIT   1133.41     0  01:45      1.70    1.13    1.00
  HS02004862HS02004870 CONDUIT   1145.22     0  01:45      1.82    1.24    1.00
  HS02004870HS02004876 CONDUIT   1245.91     0  01:54      1.78    0.83    1.00
  HS02004876HS02004881 CONDUIT   1511.98     0  01:53      2.16   16.08    1.00
  HS02004881HS02006253 CONDUIT   1664.90     0  01:50      2.38    0.33    1.00
  HS02004901HS02004770 CONDUIT    265.79     0  02:10      0.38    1.00    1.00
  WS02001211WS02001212 CONDUIT    207.23     0  03:41      0.54    0.16    0.70
  WS02001212WS02001213 CONDUIT    209.20     0  03:41      1.04    0.32    0.57
  WS02001213WS02003059 CONDUIT    217.54     0  03:40      0.47    0.36    0.90
  WS02003059WS02003060 CONDUIT    224.67     0  03:40      0.66    0.15    0.82
  WS02003060WS02003069 CONDUIT   1535.14     0  01:54      2.09    0.60    0.62
  WS02003066WSF200     CONDUIT   1334.00     0  01:50      3.27    0.23    0.39
  WS02003067WS02003066 CONDUIT   1334.02     0  01:50      2.03    0.43    0.56
  WS02003069WS02003072 CONDUIT   1535.15     0  01:54      1.91    0.74    0.67
  WS02003072WS02003073 CONDUIT   1535.17     0  01:55      2.07    3.32    0.62
  WS02004138WS02004139 CONDUIT    190.63     0  00:29      2.18    0.04    0.42
  WS02004139WS02001211 CONDUIT    203.92     0  01:39      0.54    0.26    0.61
  WS02004401WS02004402 CONDUIT   1334.14     0  01:50      1.70    1.60    1.00
  WS02004402WS02004403 CONDUIT   1334.01     0  01:50      1.70    1.92    1.00
  WS02004403WS02004404 CONDUIT   1334.56     0  01:50      1.70    0.96    1.00
  WS02004404WS02004405 CONDUIT   1334.75     0  01:50      1.70   13.08    1.00
  WS02004405WS02004406 CONDUIT   1334.69     0  01:50      1.70    2.63    1.00
  WS02004406WS02004407 CONDUIT   1334.89     0  01:50      1.76    0.60    0.99
  WS02004407WS02004409 CONDUIT   1334.02     0  01:50      2.00    0.47    0.99
  WS02004409WS02004410 CONDUIT   1334.06     0  01:51      1.70    1.73    1.00
  WS02004410WS02004411 CONDUIT   1334.20     0  01:50      1.70    1.82    1.00
  WS02004411WS02004412 CONDUIT   1333.99     0  01:50      1.70    1.89    1.00
  WS02004412WS02004413 CONDUIT   1334.31     0  01:50      1.70    0.89    1.00
  WS02004413WS02003067 CONDUIT   1334.05     0  01:50      2.05    0.57    0.77
  WS02006109WS02006110 CONDUIT   1124.34     0  02:15      2.24    2.16    1.00
  WS02006110WS02006113 CONDUIT   1124.76     0  02:15      2.24    1.02    1.00
  WS02006111WS02006112 CONDUIT   1125.28     0  02:15      2.24    0.54    1.00
  WS02006112WS02006115 CONDUIT   1333.60     0  01:50      1.70    0.79    1.00
  WS02006113WS02006111 CONDUIT   1124.91     0  02:15      2.73    1.35    1.00
  WS02006115WS02006116 CONDUIT   1334.66     0  01:50      1.70    1.71    1.00
  WS02006116WS02004401 CONDUIT   1333.90     0  01:50      1.70    1.84    1.00
  WS02006228WS02006109 CONDUIT   1289.68     0  01:48      2.57    5.63    1.00
  WS02006229WS02006228 CONDUIT   1289.91     0  01:48      2.57    4.27    1.00
  WS02006230WS02006229 CONDUIT   1017.97     0  01:56      2.65   22.65    1.00
  WS02006231WS02006230 CONDUIT    493.21     0  03:34      1.34    7.48    1.00
  WS02006232WS02006231 CONDUIT    493.19     0  03:34      1.28    1.03    1.00
  WS02006234WS02006232 CONDUIT    493.18     0  03:34      1.41    1.00    1.00
  WS02006235WS02006234 CONDUIT    493.14     0  03:34      1.28    5.20    1.00
  WS02006238WS02006235 CONDUIT    423.54     0  03:36      1.53    0.95    1.00
  WS02006239WS02006238 CONDUIT    424.46     0  03:36      1.12    1.36    1.00
  WS02006240WS02006239 CONDUIT    425.21     0  03:36      1.26    1.34    1.00
  WS02006242WS02006240 CONDUIT    424.54     0  03:36      1.14    1.69    1.00
  WS02006243WS02006242 CONDUIT    424.68     0  03:36      1.34    0.91    1.00
  WS02006245WS02006243 CONDUIT    424.81     0  03:36      1.39    1.26    1.00
  WS02006247WS02006245 CONDUIT    424.69     0  03:35      1.37    3.37    1.00
  WS02006248WS02006247 CONDUIT    424.90     0  03:36      1.38    0.92    1.00
  WS02006249WS02006248 CONDUIT    425.30     0  03:36      1.38    2.33    1.00
  WS02006251WS02006249 CONDUIT   1379.16     0  01:50      3.58    3.98    1.00
  WS02006252WS02006251 CONDUIT    414.92     0  01:32     24.89    1.52    1.00
  WS02006253WS02006251 CONDUIT   1707.96     0  01:50      4.44    5.12    1.00
  WS02006256WS02006235 CONDUIT    288.93     0  00:00      4.23    3.06    1.00
  WS02006280WS02006229 CONDUIT   2308.15     0  01:47      4.06    0.49    1.00
  WS02006284WS02006280 CONDUIT   2306.94     0  01:47      2.96    0.97    1.00
  WS02006287WS02006284 CONDUIT   2306.42     0  01:48      2.94    1.07    1.00
  WSF200WS02003060     CONDUIT   1333.86     0  01:51      2.42    0.30    0.51
  YS02001580YS02001583 CONDUIT     63.14     0  01:29      0.49    0.24    1.00
  YS02001583YS02001586 CONDUIT     96.03     0  01:29      0.41    0.15    1.00
  YS02001586YS02001590 CONDUIT    318.31     0  02:40      1.23    0.56    1.00
  YS02001590YS02001593 CONDUIT    319.80     0  01:56      1.13    2.01    1.00
  YS02001593YS02001596 CONDUIT    320.00     0  01:56      1.70    0.51    1.00
  YS02001596YS02001600 CONDUIT    318.25     0  01:56      1.27    0.62    1.00
  YS02001600YS02001601 CONDUIT    318.75     0  01:56      1.13    0.55    1.00
  YS02001601YS02001602 CONDUIT    503.93     0  01:29      1.78    1.82    1.00
  YS02001602YS02001605 CONDUIT    503.76     0  01:29      1.78   10.66    1.00
  YS02001605YS02001607 CONDUIT    503.64     0  01:29      1.78    2.76    1.00
  YS02001607YS02001610 CONDUIT    503.99     0  01:28      0.64    0.48    1.00
  YS02001610YS02001613 CONDUIT    619.85     0  02:32      0.79    0.71    1.00
  YS02001613YS02001616 CONDUIT    619.74     0  02:31      0.79    0.53    1.00
  YS02001616YS02001619 CONDUIT    620.25     0  02:19      0.79    1.08    1.00
  YS02001619YS02001622 CONDUIT   1053.95     0  02:30      1.37    1.55    1.00
  YS02001622YS02001625 CONDUIT   1053.70     0  02:22      1.34    0.56    1.00
  YS02001625YS02001629 CONDUIT    899.49     0  01:35      1.15    0.43    1.00
  YS02001629YS02163301 CONDUIT   1138.98     0  02:18      1.45    1.40    1.00
  YS02001633YS02163601 CONDUIT   1255.97     0  01:35      1.60    1.32    1.00
  YS02001641YS02001644 CONDUIT   1255.60     0  01:35      1.60    4.06    1.00
  YS02001644YS02001647 CONDUIT   1583.48     0  01:37      2.07    0.93    1.00
  YS02001647YS02001649 CONDUIT   1582.89     0  01:37      2.25    0.84    1.00
  YS02001649YS02001757 CONDUIT   1811.64     0  01:38      2.40    1.10    1.00
  YS02001652YS02001649 CONDUIT   2429.28     0  02:14      3.09    1.20    1.00
  YS02001655YS02001652 CONDUIT   2429.24     0  02:12      3.09    1.18    1.00
  YS02001658YS02001655 CONDUIT   2731.29     0  02:16      3.48    1.16    1.00
  YS02001661YS02001658 CONDUIT   2783.77     0  02:15      3.54    1.09    1.00
  YS02001664YS02001661 CONDUIT   2783.75     0  02:14      3.54    0.87    1.00
  YS02001745YS02001748 CONDUIT   2174.38     0  02:13      2.77    0.84    1.00
  YS02001748YS02001751 CONDUIT   2173.19     0  02:13      2.77    1.10    1.00
  YS02001751YS02001754 CONDUIT   2174.65     0  02:13      2.77    1.05    1.00
  YS02001754YS02001757 CONDUIT   2176.24     0  02:13      2.77    0.88    1.00
  YS02001757CaochengTiaoxuchi CONDUIT   2837.49     0  01:49      3.61    1.23    1.00
  YS02001759YS02001757 CONDUIT   1516.31     0  02:15      1.93    1.08    1.00
  YS02001762YS02001759 CONDUIT    722.93     0  02:15      0.92    0.83    1.00
  YS02001765YS02001762 CONDUIT    722.25     0  02:15      0.92    0.68    1.00
  YS02001767YS02001765 CONDUIT    722.55     0  02:15      0.92    0.91    1.00
  YS02001770YS02001767 CONDUIT    722.76     0  02:15      0.92    2.86    1.00
  YS02001774YS02001770 CONDUIT    852.07     0  02:25      1.08    0.54    1.00
  YS02001779YS02001774 CONDUIT    851.73     0  02:07      1.08    0.43    1.00
  YS02001783YS02001784 CONDUIT   1321.50     0  02:15      2.63    1.82    1.00
  YS02001784YS02001785 CONDUIT   1322.58     0  02:15      2.63    3.08    1.00
  YS02001786YS02001788 CONDUIT   1322.51     0  02:12      2.74    2.55    0.92
  YS02001788YS02001790 CONDUIT   1328.08     0  02:13      2.89    0.98    0.87
  YS02001790YS02001791 CONDUIT   1369.37     0  02:11      3.53    1.49    0.73
  YS02001791YS02001793 CONDUIT   1354.88     0  02:11      6.87    0.58    0.46
  YS02001793JiankangQianchi CONDUIT   1353.68     0  02:11      2.69    0.11    0.66
  YS02001882YS02001884 CONDUIT     33.84     0  01:30      0.26    0.04    1.00
  YS02001884YS02001887 CONDUIT     46.33     0  01:17      0.20    0.06    1.00
  YS02001887YS02001890 CONDUIT   2052.03     0  02:16      2.61    3.51    1.00
  YS02001890YS02001895 CONDUIT    532.92     0  01:56      0.68    0.25    1.00
  YS02001895YS02001898 CONDUIT    527.83     0  01:56      0.67    0.92    1.00
  YS02001898YS02001901 CONDUIT    518.87     0  02:00      0.66    0.33    1.00
  YS02001901YS02001904 CONDUIT    518.83     0  02:00      0.66    0.80    1.00
  YS02001904YS02001907 CONDUIT    520.69     0  01:56      0.66    0.18    1.00
  YS02001907YS02006553 CONDUIT   2160.93     0  02:15      2.40    2.54    1.00
  YS02001910YS02001907 CONDUIT   1993.01     0  02:09      2.54    1.12    1.00
  YS02001915YS02001910 CONDUIT   1993.14     0  02:24      2.54    0.99    1.00
  YS02001918YS02001915 CONDUIT   1221.69     0  02:19      1.56    0.67    1.00
  YS02001920YS02001918 CONDUIT   1681.63     0  02:16      2.14    1.63    1.00
  YS02001923YS02001920 CONDUIT   1679.02     0  02:15      2.14    0.75    1.00
  YS02001926YS02001923 CONDUIT   1678.95     0  02:15      2.14    2.40    1.00
  YS02001929YS02001926 CONDUIT   1678.53     0  02:15      2.14    0.80    1.00
  YS02006553YS02006556 CONDUIT   2160.44     0  02:15      2.75    1.85    1.00
  YS02006556YS02006558 CONDUIT   2161.04     0  02:12      2.75    1.71    1.00
  YS02006558YS02006561 CONDUIT   1321.43     0  02:13      4.67    2.92    1.00
  YS02006561YS02001783 CONDUIT   1321.66     0  02:15      2.63    0.68    1.00
  YS02163301YS02001633 CONDUIT   1138.88     0  02:20      1.45    1.07    1.00
  YS02163601YS02164001 CONDUIT   1255.56     0  01:35      1.60    1.11    1.00
  YS02164001YS02001641 CONDUIT   1254.99     0  01:35      1.60    1.71    1.00
  YSB1154YSB6556       CONDUIT    516.29     0  01:51      1.34    0.93    1.00
  YSB1171HS02004479    CONDUIT    502.93     0  01:45      1.00    0.34    1.00
  YSB1174YSB1171       CONDUIT    454.49     0  01:50      1.18    0.70    1.00
  YSB6556YSB1171       CONDUIT    516.22     0  01:51      1.34    0.53    1.00
  CC-R1                PUMP       683.00     0  00:00              1.00
  CC-R2                PUMP       683.00     0  00:00              1.00
  CC-S1                PUMP       200.00     0  00:00              1.00
  CC-S2                PUMP       200.00     0  00:00              1.00
  JK-R1                PUMP      1000.00     0  00:00              1.00
  JK-R2                PUMP      1000.00     0  00:00              1.00
  JK-S                 PUMP       300.00     0  00:00              1.00
  XR-1                 PUMP        95.00     0  00:00              1.00
  XR-2                 PUMP        95.00     0  00:00              1.00
  XR-3                 PUMP        95.00     0  00:00              1.00
  XR-4                 PUMP        95.00     0  00:00              1.00
  
  
  ***************************
  Flow Classification Summary
  ***************************
  
  -------------------------------------------------------------------------------------
                      Adjusted    ---------- Fraction of Time in Flow Class ---------- 
                       /Actual         Up    Down  Sub   Sup   Up    Down  Norm  Inlet 
  Conduit               Length    Dry  Dry   Dry   Crit  Crit  Crit  Crit  Ltd   Ctrl  
  -------------------------------------------------------------------------------------
  1                       1.00   0.00  0.00  0.00  0.00  1.00  0.00  0.00  0.42  0.00
  HS02004478WS02006287    1.00   0.10  0.00  0.00  0.61  0.30  0.00  0.00  0.59  0.00
  HS02004479HS02004480    1.00   0.04  0.00  0.00  0.96  0.00  0.00  0.00  0.11  0.00
  HS02004480HS02004478    1.00   0.09  0.00  0.00  0.55  0.00  0.00  0.37  0.00  0.00
  HS02004770HS02004777    1.00   0.00  0.08  0.00  0.92  0.00  0.00  0.00  0.02  0.00
  HS02004777HS02004785    1.00   0.00  0.00  0.00  1.00  0.00  0.00  0.00  0.11  0.00
  HS02004785HS02004788    1.00   0.00  0.00  0.00  1.00  0.00  0.00  0.00  0.00  0.00
  HS02004788HS02004792    1.00   0.00  0.00  0.00  0.99  0.01  0.00  0.00  0.88  0.00
  HS02004792HS02004799    1.00   0.00  0.00  0.00  0.99  0.01  0.00  0.00  0.84  0.00
  HS02004799HS02004480    1.00   0.00  0.04  0.00  0.90  0.00  0.06  0.00  0.00  0.00
  HS02004802HS02004478    1.00   0.09  0.00  0.00  0.91  0.00  0.00  0.00  0.02  0.00
  HS02004807HS02004802    1.00   0.08  0.00  0.00  0.91  0.00  0.00  0.01  0.00  0.00
  HS02004817HS02004807    1.00   0.00  0.08  0.00  0.92  0.00  0.00  0.00  0.01  0.00
  HS02004817HS02004824    1.00   0.00  0.00  0.00  1.00  0.00  0.00  0.00  0.80  0.00
  HS02004824HS02004830    1.00   0.00  0.00  0.00  1.00  0.00  0.00  0.00  0.01  0.00
  HS02004830HS02004837    1.00   0.00  0.00  0.00  1.00  0.00  0.00  0.00  0.86  0.00
  HS02004837HS02004842    1.00   0.00  0.00  0.00  1.00  0.00  0.00  0.00  0.11  0.00
  HS02004842HS02004848    1.00   0.00  0.08  0.00  0.92  0.00  0.00  0.00  0.55  0.00
  HS02004848HS02004852    1.00   0.08  0.00  0.00  0.92  0.00  0.00  0.00  0.70  0.00
  HS02004852HS02004856    1.00   0.08  0.00  0.00  0.91  0.00  0.00  0.00  0.65  0.00
  HS02004856HS02004862    1.00   0.00  0.10  0.00  0.90  0.00  0.00  0.00  0.73  0.00
  HS02004862HS02004870    1.00   0.00  0.00  0.00  1.00  0.00  0.00  0.00  0.03  0.00
  HS02004870HS02004876    1.00   0.00  0.00  0.00  0.99  0.01  0.00  0.00  0.84  0.00
  HS02004876HS02004881    1.00   0.02  0.00  0.00  0.74  0.24  0.00  0.00  0.00  0.00
  HS02004881HS02006253    1.00   0.03  0.02  0.00  0.52  0.01  0.00  0.42  0.24  0.00
  HS02004901HS02004770    1.00   0.08  0.00  0.00  0.92  0.00  0.00  0.00  0.00  0.00
  WS02001211WS02001212    1.00   0.00  0.03  0.00  0.97  0.00  0.00  0.00  0.00  0.00
  WS02001212WS02001213    1.00   0.03  0.00  0.00  0.52  0.00  0.45  0.00  0.00  0.00
  WS02001213WS02003059    1.00   0.00  0.00  0.00  0.99  0.00  0.00  0.00  0.00  0.00
  WS02003059WS02003060    1.00   0.00  0.00  0.00  1.00  0.00  0.00  0.00  0.03  0.00
  WS02003060WS02003069    1.00   0.00  0.00  0.00  0.98  0.02  0.00  0.00  0.53  0.00
  WS02003066WSF200        1.00   0.06  0.00  0.00  0.00  0.94  0.00  0.00  0.62  0.00
  WS02003067WS02003066    1.00   0.05  0.00  0.00  0.94  0.00  0.00  0.00  0.00  0.00
  WS02003069WS02003072    1.00   0.00  0.00  0.00  1.00  0.00  0.00  0.00  0.60  0.00
  WS02003072WS02003073    1.00   0.00  0.00  0.00  0.00  0.00  0.00  1.00  0.00  0.00
  WS02004138WS02004139    1.00   0.00  0.01  0.00  0.97  0.01  0.00  0.01  0.98  0.00
  WS02004139WS02001211    1.00   0.00  0.00  0.00  0.99  0.00  0.00  0.00  0.00  0.00
  WS02004401WS02004402    1.00   0.03  0.00  0.00  0.97  0.00  0.00  0.00  0.00  0.00
  WS02004402WS02004403    1.00   0.03  0.00  0.00  0.97  0.00  0.00  0.00  0.00  0.00
  WS02004403WS02004404    1.00   0.00  0.03  0.00  0.97  0.00  0.00  0.00  0.00  0.00
  WS02004404WS02004405    1.00   0.00  0.00  0.00  1.00  0.00  0.00  0.00  0.01  0.00
  WS02004405WS02004406    1.00   0.00  0.00  0.00  1.00  0.00  0.00  0.00  0.00  0.00
  WS02004406WS02004407    1.00   0.00  0.04  0.00  0.96  0.00  0.00  0.00  0.00  0.00
  WS02004407WS02004409    1.00   0.04  0.00  0.00  0.95  0.01  0.00  0.00  0.80  0.00
  WS02004409WS02004410    1.00   0.04  0.00  0.00  0.96  0.00  0.00  0.00  0.00  0.00
  WS02004410WS02004411    1.00   0.04  0.00  0.00  0.96  0.00  0.00  0.00  0.00  0.00
  WS02004411WS02004412    1.00   0.04  0.00  0.00  0.96  0.00  0.00  0.00  0.00  0.00
  WS02004412WS02004413    1.00   0.04  0.00  0.00  0.96  0.00  0.00  0.00  0.00  0.00
  WS02004413WS02003067    1.00   0.04  0.01  0.00  0.00  0.00  0.95  0.00  0.00  0.00
  WS02006109WS02006110    1.00   0.00  0.01  0.00  0.98  0.00  0.01  0.00  0.00  0.00
  WS02006110WS02006113    1.00   0.01  0.01  0.00  0.98  0.00  0.00  0.00  0.00  0.00
  WS02006111WS02006112    1.00   0.02  0.00  0.00  0.97  0.00  0.00  0.00  0.72  0.00
  WS02006112WS02006115    1.00   0.02  0.00  0.00  0.97  0.00  0.00  0.00  0.00  0.00
  WS02006113WS02006111    1.00   0.02  0.00  0.00  0.33  0.65  0.00  0.00  0.09  0.00
  WS02006115WS02006116    1.00   0.03  0.00  0.00  0.97  0.00  0.00  0.01  0.00  0.00
  WS02006116WS02004401    1.00   0.03  0.00  0.00  0.97  0.00  0.00  0.00  0.00  0.00
  WS02006228WS02006109    1.00   0.00  0.00  0.00  1.00  0.00  0.00  0.00  0.00  0.00
  WS02006229WS02006228    1.00   0.00  0.00  0.00  0.99  0.00  0.00  0.01  0.00  0.00
  WS02006230WS02006229    1.00   0.00  0.00  0.00  0.98  0.00  0.00  0.02  0.01  0.00
  WS02006231WS02006230    1.00   0.00  0.00  0.00  0.56  0.00  0.43  0.00  0.00  0.00
  WS02006232WS02006231    1.00   0.00  0.00  0.00  0.99  0.00  0.00  0.00  0.00  0.00
  WS02006234WS02006232    1.00   0.00  0.00  0.00  1.00  0.00  0.00  0.00  0.23  0.00
  WS02006235WS02006234    1.00   0.00  0.00  0.00  0.77  0.00  0.23  0.00  0.00  0.00
  WS02006238WS02006235    1.00   0.00  0.00  0.00  1.00  0.00  0.00  0.00  0.00  0.00
  WS02006239WS02006238    1.00   0.00  0.00  0.00  1.00  0.00  0.00  0.00  0.42  0.00
  WS02006240WS02006239    1.00   0.00  0.00  0.00  0.68  0.00  0.00  0.31  0.01  0.00
  WS02006242WS02006240    1.00   0.00  0.00  0.00  0.98  0.00  0.01  0.00  0.00  0.00
  WS02006243WS02006242    1.00   0.00  0.00  0.00  0.99  0.00  0.00  0.00  0.57  0.00
  WS02006245WS02006243    1.00   0.00  0.00  0.00  0.89  0.00  0.00  0.11  0.00  0.00
  WS02006247WS02006245    1.00   0.00  0.00  0.00  0.99  0.00  0.00  0.01  0.00  0.00
  WS02006248WS02006247    1.00   0.00  0.00  0.00  1.00  0.00  0.00  0.00  0.53  0.00
  WS02006249WS02006248    1.00   0.00  0.00  0.00  0.60  0.00  0.40  0.00  0.00  0.00
  WS02006251WS02006249    1.00   0.00  0.00  0.00  1.00  0.00  0.00  0.00  0.59  0.00
  WS02006252WS02006251    1.00   0.00  0.11  0.00  0.45  0.00  0.44  0.00  0.00  0.00
  WS02006253WS02006251    1.00   0.00  0.00  0.00  0.96  0.00  0.04  0.00  0.00  0.00
  WS02006256WS02006235    1.00   0.00  0.00  0.00  0.99  0.01  0.00  0.00  0.00  0.00
  WS02006280WS02006229    1.00   0.09  0.00  0.00  0.28  0.05  0.00  0.58  0.01  0.00
  WS02006284WS02006280    1.00   0.09  0.00  0.00  0.18  0.03  0.00  0.70  0.00  0.00
  WS02006287WS02006284    1.00   0.07  0.02  0.00  0.50  0.40  0.00  0.00  0.65  0.00
  WSF200WS02003060        1.00   0.00  0.06  0.00  0.44  0.51  0.00  0.00  0.57  0.00
  YS02001580YS02001583    1.00   0.13  0.37  0.00  0.50  0.00  0.00  0.00  0.60  0.00
  YS02001583YS02001586    1.00   0.25  0.19  0.00  0.55  0.00  0.01  0.00  0.60  0.00
  YS02001586YS02001590    1.00   0.08  0.00  0.00  0.67  0.02  0.00  0.22  0.31  0.00
  YS02001590YS02001593    1.00   0.08  0.00  0.00  0.39  0.00  0.53  0.00  0.00  0.00
  YS02001593YS02001596    1.00   0.09  0.00  0.00  0.41  0.01  0.00  0.50  0.02  0.00
  YS02001596YS02001600    1.00   0.09  0.00  0.00  0.47  0.01  0.00  0.43  0.03  0.00
  YS02001600YS02001601    1.00   0.08  0.00  0.00  0.91  0.00  0.00  0.00  0.54  0.00
  YS02001601YS02001602    1.00   0.08  0.00  0.00  0.91  0.00  0.00  0.00  0.00  0.00
  YS02001602YS02001605    1.00   0.09  0.00  0.00  0.91  0.00  0.00  0.00  0.00  0.00
  YS02001605YS02001607    1.00   0.09  0.00  0.00  0.91  0.00  0.00  0.00  0.00  0.00
  YS02001607YS02001610    1.00   0.09  0.00  0.00  0.91  0.00  0.00  0.00  0.00  0.00
  YS02001610YS02001613    1.00   0.09  0.00  0.00  0.91  0.00  0.00  0.00  0.00  0.00
  YS02001613YS02001616    1.00   0.08  0.00  0.00  0.92  0.00  0.00  0.00  0.00  0.00
  YS02001616YS02001619    1.00   0.08  0.00  0.00  0.92  0.00  0.00  0.00  0.00  0.00
  YS02001619YS02001622    1.00   0.08  0.00  0.00  0.91  0.00  0.00  0.00  0.25  0.00
  YS02001622YS02001625    1.00   0.08  0.00  0.00  0.91  0.00  0.00  0.00  0.01  0.00
  YS02001625YS02001629    1.00   0.09  0.01  0.00  0.47  0.00  0.43  0.00  0.00  0.00
  YS02001629YS02163301    1.00   0.09  0.00  0.00  0.91  0.00  0.00  0.00  0.00  0.00
  YS02001633YS02163601    1.00   0.00  0.01  0.00  0.99  0.00  0.00  0.00  0.13  0.00
  YS02001641YS02001644    1.00   0.00  0.00  0.00  0.99  0.00  0.00  0.00  0.00  0.00
  YS02001644YS02001647    1.00   0.00  0.09  0.00  0.91  0.00  0.00  0.00  0.00  0.00
  YS02001647YS02001649    1.00   0.00  0.09  0.00  0.72  0.19  0.00  0.00  0.53  0.00
  YS02001649YS02001757    1.00   0.00  0.00  0.00  0.80  0.20  0.00  0.00  0.35  0.00
  YS02001652YS02001649    1.00   0.00  0.00  0.00  0.99  0.01  0.00  0.00  0.65  0.00
  YS02001655YS02001652    1.00   0.00  0.00  0.00  0.51  0.00  0.00  0.49  0.03  0.00
  YS02001658YS02001655    1.00   0.00  0.09  0.00  0.81  0.10  0.00  0.00  0.57  0.00
  YS02001661YS02001658    1.00   0.09  0.00  0.00  0.64  0.28  0.00  0.00  0.59  0.00
  YS02001664YS02001661    1.00   0.08  0.00  0.00  0.81  0.11  0.00  0.00  0.73  0.00
  YS02001745YS02001748    1.00   0.00  0.00  0.00  0.37  0.00  0.00  0.62  0.04  0.00
  YS02001748YS02001751    1.00   0.00  0.00  0.00  0.90  0.10  0.00  0.00  0.68  0.00
  YS02001751YS02001754    1.00   0.00  0.00  0.00  0.49  0.01  0.00  0.50  0.03  0.00
  YS02001754YS02001757    1.00   0.00  0.00  0.00  1.00  0.00  0.00  0.00  0.69  0.00
  YS02001757CaochengTiaoxuchi    1.00   0.00  0.00  0.00  0.96  0.04  0.00  0.00  0.66  0.00
  YS02001759YS02001757    1.00   0.00  0.00  0.00  0.99  0.01  0.00  0.00  0.57  0.00
  YS02001762YS02001759    1.00   0.00  0.00  0.00  1.00  0.00  0.00  0.00  0.01  0.00
  YS02001765YS02001762    1.00   0.00  0.00  0.00  1.00  0.00  0.00  0.00  0.63  0.00
  YS02001767YS02001765    1.00   0.00  0.00  0.00  1.00  0.00  0.00  0.00  0.00  0.00
  YS02001770YS02001767    1.00   0.00  0.00  0.00  1.00  0.00  0.00  0.00  0.00  0.00
  YS02001774YS02001770    1.00   0.00  0.08  0.00  0.82  0.00  0.09  0.00  0.01  0.00
  YS02001779YS02001774    1.00   0.00  0.00  0.00  1.00  0.00  0.00  0.00  0.66  0.00
  YS02001783YS02001784    1.00   0.00  0.09  0.00  0.91  0.00  0.00  0.00  0.53  0.00
  YS02001784YS02001785    1.00   0.00  0.00  0.00  1.00  0.00  0.00  0.00  0.14  0.00
  YS02001786YS02001788    1.00   0.00  0.00  0.00  0.75  0.25  0.00  0.00  0.00  0.00
  YS02001788YS02001790    1.00   0.00  0.00  0.00  0.21  0.79  0.00  0.00  0.75  0.00
  YS02001790YS02001791    1.00   0.00  0.00  0.00  0.01  0.99  0.00  0.00  0.11  0.00
  YS02001791YS02001793    1.00   0.00  0.00  0.00  0.00  1.00  0.00  0.00  0.02  0.00
  YS02001793JiankangQianchi    1.00   0.00  0.00  0.00  0.82  0.18  0.00  0.00  0.95  0.00
  YS02001882YS02001884    1.00   0.09  0.00  0.00  0.91  0.00  0.00  0.00  0.00  0.00
  YS02001884YS02001887    1.00   0.05  0.03  0.00  0.92  0.00  0.00  0.00  0.00  0.00
  YS02001887YS02001890    1.00   0.00  0.00  0.00  0.97  0.00  0.03  0.00  0.00  0.00
  YS02001890YS02001895    1.00   0.00  0.09  0.00  0.91  0.00  0.00  0.00  0.00  0.00
  YS02001895YS02001898    1.00   0.09  0.00  0.00  0.90  0.00  0.00  0.00  0.00  0.00
  YS02001898YS02001901    1.00   0.09  0.00  0.00  0.91  0.00  0.00  0.00  0.00  0.00
  YS02001901YS02001904    1.00   0.09  0.00  0.00  0.91  0.00  0.00  0.00  0.00  0.00
  YS02001904YS02001907    1.00   0.00  0.09  0.00  0.91  0.00  0.00  0.00  0.00  0.00
  YS02001907YS02006553    1.00   0.00  0.02  0.00  0.97  0.00  0.00  0.00  0.00  0.00
  YS02001910YS02001907    1.00   0.00  0.00  0.00  0.97  0.00  0.00  0.03  0.11  0.00
  YS02001915YS02001910    1.00   0.00  0.00  0.00  0.97  0.02  0.00  0.00  0.11  0.00
  YS02001918YS02001915    1.00   0.00  0.00  0.00  0.97  0.02  0.00  0.00  0.65  0.00
  YS02001920YS02001918    1.00   0.00  0.00  0.00  1.00  0.00  0.00  0.00  0.00  0.00
  YS02001923YS02001920    1.00   0.00  0.00  0.00  1.00  0.00  0.00  0.00  0.80  0.00
  YS02001926YS02001923    1.00   0.00  0.06  0.00  0.26  0.00  0.68  0.00  0.00  0.00
  YS02001929YS02001926    1.00   0.00  0.08  0.00  0.92  0.00  0.00  0.00  0.71  0.00
  YS02006553YS02006556    1.00   0.01  0.00  0.00  0.99  0.00  0.00  0.00  0.03  0.00
  YS02006556YS02006558    1.00   0.00  0.00  0.00  1.00  0.00  0.00  0.00  0.00  0.00
  YS02006558YS02006561    1.00   0.09  0.00  0.00  0.25  0.66  0.00  0.00  0.14  0.00
  YS02006561YS02001783    1.00   0.09  0.00  0.00  0.34  0.57  0.00  0.00  0.61  0.00
  YS02163301YS02001633    1.00   0.00  0.09  0.00  0.91  0.00  0.00  0.00  0.00  0.00
  YS02163601YS02164001    1.00   0.00  0.06  0.00  0.94  0.00  0.00  0.00  0.00  0.00
  YS02164001YS02001641    1.00   0.01  0.06  0.00  0.94  0.00  0.00  0.00  0.05  0.00
  YSB1154YSB6556          1.00   0.08  0.00  0.00  0.92  0.00  0.00  0.00  0.02  0.00
  YSB1171HS02004479       1.00   0.04  0.00  0.00  0.95  0.00  0.00  0.01  0.10  0.00
  YSB1174YSB1171          1.00   0.05  0.02  0.00  0.93  0.00  0.00  0.00  0.00  0.00
  YSB6556YSB1171          1.00   0.04  0.04  0.00  0.92  0.00  0.00  0.00  0.00  0.00
  
  
  *************************
  Conduit Surcharge Summary
  *************************
  
  ----------------------------------------------------------------------------
                                                           Hours        Hours 
                         --------- Hours Full --------   Above Full   Capacity
  Conduit                Both Ends  Upstream  Dnstream   Normal Flow   Limited
  ----------------------------------------------------------------------------
  HS02004478WS02006287        0.61      0.61      0.79      0.01         0.01
  HS02004479HS02004480        0.79      0.79      0.81      0.01         0.01
  HS02004480HS02004478        0.72      0.79      0.72      1.78         0.72
  HS02004770HS02004777        0.69      0.69      0.69      0.10         0.06
  HS02004777HS02004785        0.64      0.64      0.69      0.01         0.01
  HS02004785HS02004788        0.63      0.64      0.63      1.60         0.54
  HS02004788HS02004792        0.63      0.63      0.75      0.01         0.01
  HS02004792HS02004799        0.75      0.75      0.88      0.01         0.01
  HS02004799HS02004480        0.79      0.79      0.88      0.99         0.01
  HS02004802HS02004478        0.73      0.73      0.80      0.19         0.01
  HS02004807HS02004802        0.78      0.78      0.79      0.35         0.35
  HS02004817HS02004807        0.78      0.78      1.44      0.01         0.01
  HS02004817HS02004824        0.63      0.63      1.44      0.01         0.01
  HS02004824HS02004830        0.60      0.60      0.63      0.01         0.01
  HS02004830HS02004837        0.56      0.56      0.60      0.01         0.01
  HS02004837HS02004842        0.56      0.56      0.70      0.01         0.01
  HS02004842HS02004848        0.53      0.53      0.70      0.01         0.01
  HS02004848HS02004852        0.53      0.53      0.55      0.02         0.01
  HS02004852HS02004856        0.55      0.55      0.57      0.01         0.01
  HS02004856HS02004862        0.54      0.54      0.58      0.01         0.01
  HS02004862HS02004870        0.58      0.58      0.60      0.25         0.24
  HS02004870HS02004876        0.60      0.60      0.68      0.01         0.01
  HS02004876HS02004881        0.66      0.68      0.66      1.62         0.66
  HS02004881HS02006253        0.66      0.66      2.42      0.01         0.01
  HS02004901HS02004770        0.69      0.69      0.70      0.03         0.01
  WS02003072WS02003073        0.01      0.01      0.01      2.92         0.01
  WS02004401WS02004402        1.85      1.85      1.89      1.61         1.57
  WS02004402WS02004403        1.89      1.89      1.90      1.83         1.82
  WS02004403WS02004404        1.90      1.90      2.08      0.01         0.04
  WS02004404WS02004405        2.06      2.08      2.06      3.43         2.06
  WS02004405WS02004406        2.06      2.06      2.06      2.29         2.06
  WS02004406WS02004407        0.01      0.01      2.06      0.01         0.01
  WS02004407WS02004409        0.01      0.01      1.20      0.01         0.01
  WS02004409WS02004410        1.14      1.20      1.14      1.69         1.14
  WS02004410WS02004411        1.04      1.14      1.04      1.77         1.04
  WS02004411WS02004412        0.92      1.04      0.92      1.82         0.92
  WS02004412WS02004413        0.92      0.92      1.54      0.01         0.01
  WS02004413WS02003067        0.01      0.01      1.54      0.01         0.01
  WS02006109WS02006110        2.20      2.20      2.80      2.21         0.01
  WS02006110WS02006113        1.52      1.52      2.79      0.35         0.01
  WS02006111WS02006112        1.50      1.50      2.87      0.01         0.01
  WS02006112WS02006115        1.70      1.70      2.53      0.01         0.01
  WS02006113WS02006111        1.51      1.52      1.51      1.61         1.51
  WS02006115WS02006116        1.72      1.72      1.72      1.69         1.66
  WS02006116WS02004401        1.83      1.83      1.85      1.79         1.76
  WS02006228WS02006109        2.79      2.80      2.79      3.02         2.78
  WS02006229WS02006228        2.78      2.79      2.78      2.87         2.78
  WS02006230WS02006229        2.81      2.82      2.81      3.56         1.61
  WS02006231WS02006230        2.08      2.08      2.26      3.29         1.17
  WS02006232WS02006231        2.21      2.21      2.74      0.15         0.18
  WS02006234WS02006232        2.69      2.69      2.74      0.01         0.01
  WS02006235WS02006234        2.68      2.68      2.70      3.12         1.15
  WS02006238WS02006235        2.71      2.71      2.72      0.01         0.50
  WS02006239WS02006238        2.72      2.72      2.72      1.71         0.65
  WS02006240WS02006239        2.70      2.70      2.70      1.71         0.63
  WS02006242WS02006240        2.70      2.70      2.71      2.16         1.08
  WS02006243WS02006242        2.69      2.69      2.71      0.01         0.01
  WS02006245WS02006243        2.68      2.68      2.68      0.72         0.61
  WS02006247WS02006245        2.68      2.69      2.68      2.55         1.26
  WS02006248WS02006247        2.67      2.67      2.69      0.01         0.01
  WS02006249WS02006248        2.67      2.67      2.67      1.27         0.01
  WS02006251WS02006249        2.66      2.66      2.67      2.76         2.65
  WS02006252WS02006251        2.78      2.78      2.79      2.45         0.12
  WS02006253WS02006251        2.66      2.66      2.66      0.93         0.01
  WS02006256WS02006235        3.38      3.39      5.20      1.43         0.01
  WS02006280WS02006229        0.93      0.93      1.12      0.01         0.01
  WS02006284WS02006280        0.82      0.82      0.91      0.01         0.01
  WS02006287WS02006284        0.72      0.72      0.83      0.38         0.38
  YS02001580YS02001583        1.56      1.56      1.62      0.01         0.01
  YS02001583YS02001586        1.57      1.57      1.70      0.01         0.01
  YS02001586YS02001590        1.71      1.71      1.78      0.01         0.01
  YS02001590YS02001593        1.77      1.77      1.80      1.78         0.01
  YS02001593YS02001596        1.79      1.79      1.89      0.01         0.01
  YS02001596YS02001600        1.94      1.94      2.03      0.01         0.01
  YS02001600YS02001601        2.08      2.08      2.28      0.01         0.01
  YS02001601YS02001602        2.22      2.22      2.30      1.99         0.01
  YS02001602YS02001605        2.18      2.18      2.22      2.85         0.01
  YS02001605YS02001607        2.16      2.18      2.17      2.15         2.06
  YS02001607YS02001610        1.80      1.80      1.83      0.01         0.01
  YS02001610YS02001613        1.80      1.80      1.83      0.01         0.01
  YS02001613YS02001616        1.76      1.76      1.80      0.01         0.01
  YS02001616YS02001619        1.75      1.75      1.76      0.56         0.42
  YS02001619YS02001622        1.74      1.75      1.75      1.70         1.57
  YS02001622YS02001625        1.75      1.75      1.94      0.01         0.01
  YS02001625YS02001629        1.68      1.68      1.94      0.01         0.01
  YS02001629YS02163301        1.95      1.95      1.97      0.47         0.13
  YS02001633YS02163601        2.00      2.00      2.05      0.21         0.22
  YS02001641YS02001644        1.95      1.97      1.95      2.34         1.85
  YS02001644YS02001647        1.71      1.71      1.95      0.01         0.01
  YS02001647YS02001649        1.71      1.71      1.84      0.01         0.01
  YS02001649YS02001757        1.84      1.84      1.92      0.17         0.08
  YS02001652YS02001649        1.69      1.69      1.84      0.17         0.17
  YS02001655YS02001652        1.52      1.52      1.66      0.17         0.17
  YS02001658YS02001655        1.27      1.27      1.52      0.13         0.13
  YS02001661YS02001658        0.53      0.53      1.27      0.11         0.11
  YS02001664YS02001661        0.29      0.29      0.70      0.01         0.01
  YS02001745YS02001748        0.31      0.31      1.10      0.01         0.01
  YS02001748YS02001751        1.24      1.24      1.43      0.04         0.04
  YS02001751YS02001754        1.43      1.43      1.61      0.03         0.03
  YS02001754YS02001757        1.65      1.65      1.92      0.01         0.01
  YS02001757CaochengTiaoxuchi        1.92      1.92      2.41      0.74         0.74
  YS02001759YS02001757        1.84      1.84      1.92      0.12         0.06
  YS02001762YS02001759        1.81      1.81      1.84      0.01         0.01
  YS02001765YS02001762        1.77      1.77      1.81      0.01         0.01
  YS02001767YS02001765        1.74      1.74      1.77      0.01         0.02
  YS02001770YS02001767        1.74      1.74      1.74      1.39         0.92
  YS02001774YS02001770        1.72      1.72      1.79      0.01         0.01
  YS02001779YS02001774        1.59      1.59      1.79      0.01         0.01
  YS02001783YS02001784        1.45      1.48      1.45      1.66         1.45
  YS02001784YS02001785        1.26      1.45      1.26      1.80         1.26
  YS02001786YS02001788        0.01      1.26      0.01      1.74         0.01
  YS02001790YS02001791        0.01      0.01      0.01      1.42         0.01
  YS02001793JiankangQianchi        0.01      0.01      7.66      0.01         0.01
  YS02001882YS02001884        1.39      1.39      1.40      0.01         0.01
  YS02001884YS02001887        1.45      1.45      1.46      0.01         0.01
  YS02001887YS02001890        1.48      1.48      1.50      0.58         0.01
  YS02001890YS02001895        1.37      1.37      1.52      0.01         0.01
  YS02001895YS02001898        1.36      1.36      1.37      0.01         0.01
  YS02001898YS02001901        1.37      1.37      1.44      0.01         0.01
  YS02001901YS02001904        1.43      1.43      1.44      0.01         0.01
  YS02001904YS02001907        1.43      1.43      1.73      0.01         0.01
  YS02001907YS02006553        1.81      1.81      1.84      0.23         0.23
  YS02001910YS02001907        1.52      1.52      1.72      0.43         0.43
  YS02001915YS02001910        1.38      1.38      1.52      0.01         0.05
  YS02001918YS02001915        1.23      1.23      1.38      0.01         0.01
  YS02001920YS02001918        1.23      1.23      1.26      0.23         0.01
  YS02001923YS02001920        1.17      1.17      1.26      0.01         0.01
  YS02001926YS02001923        0.61      0.61      0.66      0.38         0.01
  YS02001929YS02001926        0.46      0.46      0.66      0.01         0.01
  YS02006553YS02006556        1.63      1.63      1.73      0.19         0.19
  YS02006556YS02006558        1.69      1.69      1.74      0.17         0.01
  YS02006558YS02006561        1.29      1.61      1.29      1.78         1.29
  YS02006561YS02001783        1.19      1.19      1.48      0.01         0.01
  YS02163301YS02001633        1.97      1.97      2.02      0.25         0.01
  YS02163601YS02164001        1.96      1.96      2.05      0.14         0.01
  YS02164001YS02001641        1.96      1.96      1.97      0.81         0.75
  YSB1154YSB6556              0.85      0.85      1.02      0.01         0.01
  YSB1171HS02004479           0.75      0.75      1.03      0.01         0.01
  YSB1174YSB1171              0.92      0.92      1.32      0.01         0.01
  YSB6556YSB1171              0.85      0.85      1.52      0.01         0.01
  
  
  ***************
  Pumping Summary
  ***************
  
  ---------------------------------------------------------------------------------------------------------
                                                  Min       Avg       Max     Total     Power    % Time Off
                        Percent   Number of      Flow      Flow      Flow    Volume     Usage    Pump Curve
  Pump                 Utilized   Start-Ups       LPS       LPS       LPS  10^6 ltr     Kw-hr    Low   High
  ---------------------------------------------------------------------------------------------------------
  CC-R1                   33.73           2      0.00    683.00    683.00     6.635    130.26    0.0   55.0
  CC-R2                   32.44           2      0.00    683.00    683.00     6.381    125.56    0.0   57.1
  CC-S1                   35.90           2      0.00    200.00    200.00     2.068     11.15    0.0   38.5
  CC-S2                   34.80           2      0.00    200.00    200.00     2.005     10.77    0.0   39.7
  JK-R1                   17.32           6      0.00   1000.00   1000.00     4.989     47.53    0.0    0.0
  JK-R2                    0.16           1      0.00   1000.00   1000.00     0.047      0.36    0.0    0.0
  JK-S                    29.45           3      0.00    300.00    300.00     2.545     40.05    0.0    0.0
  XR-1                    97.91           2      0.00     95.00     95.00     2.679      9.62    0.0    0.0
  XR-2                    93.94           2      0.00     95.00     95.00     2.570      8.78    0.0    0.0
  XR-3                     0.00           1      0.00     95.00     95.00     0.000      0.00    0.0    0.0
  XR-4                     0.00           1      0.00     95.00     95.00     0.000      0.00    0.0    0.0
  

  Analysis begun on:  Thu Jul 20 17:19:14 2023
  Analysis ended on:  Thu Jul 20 17:19:36 2023
  Total elapsed time: 00:00:22