
  OWA STORM WATER MANAGEMENT MODEL - VERSION v5.1.14 (OWA 2022-07-31)
  --------------------------------------------------------------

  WARNING 04: minimum elevation drop used for Conduit WS02004404WS02004405
  WARNING 03: negative offset ignored for Link YS02001904YS02001907
  
  *********************************************************
  NOTE: The summary statistics displayed in this report are
  based on results found at every computational time step,  
  not just on results from each reporting time step.
  *********************************************************
  
  ****************
  Analysis Options
  ****************
  Flow Units ............... LPS
  Process Models:
    Rainfall/Runoff ........ YES
    RDII ................... NO
    Snowmelt ............... NO
    Groundwater ............ NO
    Flow Routing ........... YES
    Ponding Allowed ........ NO
    Water Quality .......... NO
  Infiltration Method ...... HORTON
  Flow Routing Method ...... DYNWAVE
  Surcharge Method ......... EXTRAN
  Starting Date ............ 08/28/2015 08:00:00
  Ending Date .............. 08/28/2015 16:00:00
  Antecedent Dry Days ...... 8.0
  Report Time Step ......... 00:01:00
  Wet Time Step ............ 00:01:00
  Dry Time Step ............ 00:01:00
  Routing Time Step ........ 30.00 sec
  Variable Time Step ....... YES
  Maximum Trials ........... 8
  Number of Threads ........ 4
  Head Tolerance ........... 0.001500 m
  
  
  **************************        Volume         Depth
  Runoff Quantity Continuity     hectare-m            mm
  **************************     ---------       -------
  Total Precipitation ......         8.442       139.361
  Evaporation Loss .........         0.000         0.000
  Infiltration Loss ........         0.256         4.231
  Surface Runoff ...........         8.127       134.153
  Final Storage ............         0.061         1.009
  Continuity Error (%) .....        -0.023
  
  
  **************************        Volume        Volume
  Flow Routing Continuity        hectare-m      10^6 ltr
  **************************     ---------     ---------
  Dry Weather Inflow .......         0.630         6.296
  Wet Weather Inflow .......         8.127        81.266
  Groundwater Inflow .......         0.000         0.000
  RDII Inflow ..............         0.000         0.000
  External Inflow ..........         0.105         1.045
  External Outflow .........         3.173        31.733
  Flooding Loss ............         5.634        56.338
  Evaporation Loss .........         0.000         0.000
  Exfiltration Loss ........         0.000         0.000
  Initial Stored Volume ....         0.303         3.031
  Final Stored Volume ......         0.362         3.624
  Continuity Error (%) .....        -0.062
  
  
  *************************
  Highest Continuity Errors
  *************************
  Node YS02001884 (4.30%)
  Node YS02001583 (-3.87%)
  
  
  ***************************
  Time-Step Critical Elements
  ***************************
  Link WS02006280WS02006229 (43.95%)
  Link YS02001791YS02001793 (15.96%)
  Link WS02004404WS02004405 (15.47%)
  Link WS02006238WS02006235 (6.75%)
  Link YS02006556YS02006558 (3.30%)
  
  
  ********************************
  Highest Flow Instability Indexes
  ********************************
  Link WS02006238WS02006235 (36)
  Link WS02004404WS02004405 (36)
  Link WS02006229WS02006228 (31)
  Link WS02006235WS02006234 (30)
  Link WS02006239WS02006238 (30)
  
  
  *************************
  Routing Time Step Summary
  *************************
  Minimum Time Step           :     0.01 sec
  Average Time Step           :     2.48 sec
  Maximum Time Step           :     6.46 sec
  Percent in Steady State     :    -0.00
  Average Iterations per Step :     3.92
  Percent Not Converging      :    16.35
  
  
  ***************************
  Subcatchment Runoff Summary
  ***************************
  
  ------------------------------------------------------------------------------------------------------------------------------
                            Total      Total      Total      Total     Imperv       Perv      Total       Total     Peak  Runoff
                           Precip      Runon       Evap      Infil     Runoff     Runoff     Runoff      Runoff   Runoff   Coeff
  Subcatchment                 mm         mm         mm         mm         mm         mm         mm    10^6 ltr      LPS
  ------------------------------------------------------------------------------------------------------------------------------
  sub0                     139.36       0.00       0.00       1.05     128.38       8.71     137.09        0.11    82.92   0.984
  sub1                     139.36       0.00       0.00       1.81     122.80      13.53     136.33        0.91   587.08   0.978
  sub10                    139.36       0.00       0.00       1.27     126.95       9.88     136.83        1.51   989.70   0.982
  sub11                    139.36       0.00       0.00       1.25     126.97       9.90     136.87        1.59  1088.13   0.982
  sub12                    139.36       0.00       0.00       2.03     120.09      16.09     136.18        1.19   864.93   0.977
  sub14                    139.36       0.00       0.00       1.43     125.58      11.12     136.70        1.30   871.23   0.981
  sub15                    139.36       0.00       0.00       5.61      96.60      36.21     132.80        2.28  1418.59   0.953
  sub16                    139.36       0.00       0.00       5.80      92.48      40.20     132.68        1.39   928.91   0.952
  sub17                    139.36       0.00       0.00       5.65      93.86      38.95     132.81        1.14   755.15   0.953
  sub2                     139.36       0.00       0.00       8.05      86.90      43.52     130.43        1.22   651.93   0.936
  sub22                    139.36       0.00       0.00       8.51      78.67      51.42     130.09        8.22  4846.48   0.933
  sub23                    139.36       0.00       0.00       6.93      86.95      44.64     131.59        6.28  3914.66   0.944
  sub3                     139.36       0.00       0.00       8.79      86.86      42.78     129.64        2.92  1433.82   0.930
  sub4                     139.36       0.00       0.00       2.02     122.62      13.32     135.94        2.84  1529.78   0.975
  sub5                     139.36       0.00       0.00       1.11     128.32       8.65     136.97        1.55  1006.28   0.983
  sub60                    139.36       0.00       0.00       1.92     121.45      14.81     136.27        1.79  1235.27   0.978
  sub61                    139.36       0.00       0.00       2.78     114.56      20.92     135.47        2.49  1720.41   0.972
  sub62                    139.36       0.00       0.00       1.28     126.94       9.88     136.82        3.75  2438.12   0.982
  sub63                    139.36       0.00       0.00       5.14      97.99      35.28     133.27        3.03  1978.41   0.956
  sub64                    139.36       0.00       0.00       2.60     117.26      18.31     135.57        3.26  2039.31   0.973
  sub65                    139.36       0.00       0.00       2.25     120.00      15.87     135.87        3.74  2291.36   0.975
  sub66                    139.36       0.00       0.00       6.41      97.88      34.01     131.89        6.15  3184.99   0.946
  sub67                    139.36       0.00       0.00       1.22     126.99       9.93     136.92        2.55  1836.88   0.982
  sub68                    139.36       0.00       0.00       2.30     118.68      17.21     135.89        3.74  2488.02   0.975
  sub69                    139.36       0.00       0.00       2.09     118.36      18.81     137.17        5.08  3047.71   0.984
  sub7                     139.36       0.00       0.00       1.40     125.60      11.14     136.74        0.46   321.26   0.981
  sub70                    139.36       0.00       0.00       7.04      91.82      40.35     132.17        3.82  1797.59   0.948
  sub71                    139.36       0.00       0.00       1.31     126.90       9.84     136.74        3.58  2201.08   0.981
  sub72                    139.36       0.00       0.00       1.17     128.21       8.59     136.80        1.88  1082.84   0.982
  sub8                     139.36       0.00       0.00       1.42     125.59      11.13     136.71        0.87   591.75   0.981
  sub9                     139.36       0.00       0.00       1.42     125.58      11.12     136.71        0.66   442.56   0.981
  
  
  ******************
  Node Depth Summary
  ******************
  
  ---------------------------------------------------------------------------------
                                 Average  Maximum  Maximum  Time of Max    Reported
                                   Depth    Depth      HGL   Occurrence   Max Depth
  Node                 Type       Meters   Meters   Meters  days hr:min      Meters
  ---------------------------------------------------------------------------------
  HS02004478           JUNCTION     0.38     1.61    10.84     0  01:45        1.58
  HS02004479           JUNCTION     0.46     1.72    10.92     0  01:45        1.67
  HS02004480           JUNCTION     0.42     1.70    10.94     0  01:45        1.63
  HS02004770           JUNCTION     0.40     1.42    11.25     0  01:42        1.42
  HS02004777           JUNCTION     0.43     1.48    11.28     0  01:42        1.48
  HS02004785           JUNCTION     0.32     1.49    11.39     0  01:42        1.49
  HS02004788           JUNCTION     0.29     1.42    11.32     0  01:42        1.42
  HS02004792           JUNCTION     0.37     1.60    11.12     0  01:39        1.60
  HS02004799           JUNCTION     0.50     1.76    10.97     0  01:45        1.76
  HS02004802           JUNCTION     0.48     1.81    10.94     0  02:01        1.81
  HS02004807           JUNCTION     0.47     1.92    11.09     0  01:53        1.92
  HS02004817           JUNCTION     0.78     2.42    11.26     0  02:00        2.42
  HS02004824           JUNCTION     0.35     2.01    11.41     0  01:54        2.01
  HS02004830           JUNCTION     0.34     2.03    11.50     0  02:00        2.03
  HS02004837           JUNCTION     0.30     2.04    11.62     0  02:00        2.04
  HS02004842           JUNCTION     0.60     2.22    11.49     0  01:45        2.22
  HS02004848           JUNCTION     0.28     2.07    11.67     0  02:00        2.07
  HS02004852           JUNCTION     0.29     2.12    11.63     0  02:00        2.12
  HS02004856           JUNCTION     0.35     2.07    11.50     0  02:00        2.07
  HS02004862           JUNCTION     0.31     2.00    11.38     0  01:44        2.00
  HS02004870           JUNCTION     0.30     2.10    11.39     0  01:59        2.10
  HS02004876           JUNCTION     0.37     2.26    11.29     0  01:59        2.26
  HS02004881           JUNCTION     0.29     2.15    11.18     0  02:00        2.15
  HS02004901           JUNCTION     0.41     1.42    11.24     0  01:42        1.42
  WS02001211           JUNCTION     0.66     0.84     5.68     0  02:04        0.84
  WS02001212           JUNCTION     0.41     0.60     5.67     0  02:03        0.60
  WS02001213           JUNCTION     0.64     0.90     5.66     0  02:05        0.90
  WS02003059           JUNCTION     0.70     0.97     5.66     0  02:05        0.97
  WS02003060           JUNCTION     0.43     0.72     5.65     0  02:06        0.72
  WS02003066           JUNCTION     0.26     0.48     6.03     0  02:05        0.47
  WS02003067           JUNCTION     0.60     0.91     6.23     0  01:58        0.91
  WS02003069           JUNCTION     0.48     0.81     5.40     0  02:06        0.81
  WS02003072           JUNCTION     0.54     0.84     5.21     0  02:06        0.84
  WS02003073           JUNCTION     0.33     0.54     4.60     0  02:06        0.54
  WS02004138           JUNCTION     0.13     0.14     7.39     0  00:29        0.14
  WS02004139           JUNCTION     0.60     0.77     5.68     0  02:03        0.77
  WS02004401           JUNCTION     0.93     2.15     8.15     0  02:00        2.12
  WS02004402           JUNCTION     0.93     2.06     8.02     0  02:05        2.04
  WS02004403           JUNCTION     0.93     1.99     7.92     0  02:00        1.99
  WS02004404           JUNCTION     0.98     2.21     8.06     0  02:00        2.21
  WS02004405           JUNCTION     0.96     2.10     7.95     0  02:00        2.10
  WS02004406           JUNCTION     0.94     1.85     7.68     0  02:05        1.85
  WS02004407           JUNCTION     0.35     1.10     7.42     0  02:05        1.08
  WS02004409           JUNCTION     0.66     1.51     7.28     0  02:05        1.49
  WS02004410           JUNCTION     0.65     1.40     7.12     0  02:05        1.39
  WS02004411           JUNCTION     0.64     1.30     6.98     0  02:00        1.29
  WS02004412           JUNCTION     0.63     1.18     6.82     0  02:05        1.15
  WS02004413           JUNCTION     0.76     1.19     6.66     0  02:00        1.17
  WS02006109           JUNCTION     1.23     2.64     9.26     0  01:42        2.64
  WS02006110           JUNCTION     1.13     2.50     9.08     0  02:05        2.50
  WS02006111           JUNCTION     0.60     2.00     8.71     0  02:00        2.00
  WS02006112           JUNCTION     1.18     2.68     8.56     0  01:58        2.68
  WS02006113           JUNCTION     0.68     2.11     9.00     0  02:00        2.11
  WS02006115           JUNCTION     0.87     2.30     8.44     0  02:00        2.26
  WS02006116           JUNCTION     0.93     2.27     8.31     0  02:00        2.24
  WS02006228           JUNCTION     1.32     3.03     9.68     0  01:45        3.03
  WS02006229           JUNCTION     1.36     3.25     9.94     0  01:45        3.23
  WS02006230           JUNCTION     1.24     2.65     9.39     0  01:36        2.65
  WS02006231           JUNCTION     0.94     2.24     9.36     0  02:00        2.24
  WS02006232           JUNCTION     1.02     2.18     9.22     0  01:36        2.18
  WS02006234           JUNCTION     0.90     1.96     9.12     0  01:34        1.96
  WS02006235           JUNCTION     0.91     2.00     9.16     0  02:05        2.00
  WS02006238           JUNCTION     0.93     1.94     9.09     0  01:31        1.93
  WS02006239           JUNCTION     0.86     1.86     9.07     0  02:00        1.86
  WS02006240           JUNCTION     0.80     1.71     9.00     0  02:48        1.71
  WS02006242           JUNCTION     0.82     1.55     8.82     0  01:31        1.55
  WS02006243           JUNCTION     0.71     1.43     8.85     0  02:48        1.43
  WS02006245           JUNCTION     0.68     1.32     8.81     0  02:48        1.32
  WS02006247           JUNCTION     0.68     1.28     8.78     0  02:00        1.28
  WS02006248           JUNCTION     0.62     1.10     8.69     0  01:27        1.10
  WS02006249           JUNCTION     0.64     1.09     8.69     0  01:27        1.09
  WS02006251           JUNCTION     0.85     2.21     9.88     0  01:45        2.21
  WS02006252           JUNCTION     0.57     1.50     9.74     0  00:00        1.50
  WS02006253           JUNCTION     1.00     3.49    11.14     0  02:00        3.49
  WS02006256           JUNCTION     1.30     2.35     9.28     0  00:00        2.35
  WS02006280           JUNCTION     0.49     1.81    10.08     0  02:05        1.81
  WS02006284           JUNCTION     0.73     2.01    10.41     0  01:45        1.97
  WS02006287           JUNCTION     0.46     1.79    10.74     0  01:45        1.74
  WSF200               JUNCTION     0.27     0.55     5.78     0  02:05        0.55
  YS02001580           JUNCTION     0.18     1.05     9.59     0  01:39        1.05
  YS02001583           JUNCTION     0.22     1.14     9.64     0  01:39        0.95
  YS02001586           JUNCTION     0.33     1.13     9.30     0  01:39        1.13
  YS02001590           JUNCTION     0.46     1.40     9.26     0  02:34        1.40
  YS02001593           JUNCTION     0.38     1.31     9.17     0  01:39        1.30
  YS02001596           JUNCTION     0.51     1.67     9.09     0  01:39        1.67
  YS02001600           JUNCTION     0.61     1.87     9.00     0  01:37        1.86
  YS02001601           JUNCTION     0.81     2.06     8.90     0  01:37        2.06
  YS02001602           JUNCTION     0.70     1.87     8.77     0  01:43        1.87
  YS02001605           JUNCTION     0.66     1.78     8.68     0  02:00        1.78
  YS02001607           JUNCTION     0.63     1.66     8.51     0  02:42        1.66
  YS02001610           JUNCTION     0.67     1.68     8.48     0  01:44        1.68
  YS02001613           JUNCTION     0.63     1.70     8.54     0  02:05        1.70
  YS02001616           JUNCTION     0.57     1.61     8.52     0  01:55        1.61
  YS02001619           JUNCTION     0.54     1.61     8.54     0  01:56        1.61
  YS02001622           JUNCTION     0.53     1.62     8.52     0  02:05        1.62
  YS02001625           JUNCTION     0.79     1.78     8.38     0  01:44        1.78
  YS02001629           JUNCTION     0.69     1.85     8.40     0  01:45        1.85
  YS02001633           JUNCTION     0.77     2.08     8.53     0  01:59        2.08
  YS02001641           JUNCTION     0.75     2.01     8.45     0  02:05        1.97
  YS02001644           JUNCTION     0.74     1.92     8.35     0  01:48        1.92
  YS02001647           JUNCTION     0.53     1.85     8.46     0  02:05        1.85
  YS02001649           JUNCTION     0.62     2.05     8.44     0  01:58        2.05
  YS02001652           JUNCTION     0.49     2.16     8.76     0  02:00        2.16
  YS02001655           JUNCTION     0.40     2.20     9.05     0  02:00        2.20
  YS02001658           JUNCTION     0.30     2.30     9.44     0  02:00        2.30
  YS02001661           JUNCTION     0.28     2.46     9.86     0  02:00        2.46
  YS02001664           JUNCTION     0.12     2.31    10.23     0  02:00        2.31
  YS02001745           JUNCTION     0.17     1.47     8.99     0  02:01        1.47
  YS02001748           JUNCTION     0.29     1.76     8.84     0  02:01        1.76
  YS02001751           JUNCTION     0.35     1.84     8.72     0  02:01        1.84
  YS02001754           JUNCTION     0.46     1.99     8.60     0  02:01        1.99
  YS02001757           JUNCTION     0.65     2.21     8.47     0  02:00        2.21
  YS02001759           JUNCTION     0.59     2.21     8.57     0  02:00        2.21
  YS02001762           JUNCTION     0.58     2.15     8.55     0  02:01        2.15
  YS02001765           JUNCTION     0.55     2.10     8.55     0  02:00        2.10
  YS02001767           JUNCTION     0.54     2.02     8.51     0  02:01        2.02
  YS02001770           JUNCTION     0.55     1.95     8.44     0  01:55        1.95
  YS02001774           JUNCTION     0.61     2.05     8.47     0  02:05        2.05
  YS02001779           JUNCTION     0.43     1.68     8.37     0  01:45        1.68
  YS02001783           JUNCTION     0.35     1.54     7.68     0  02:00        1.54
  YS02001784           JUNCTION     0.36     1.50     7.57     0  02:00        1.50
  YS02001786           JUNCTION     0.29     0.96     6.99     0  02:00        0.91
  YS02001788           JUNCTION     0.21     0.64     6.62     0  02:01        0.64
  YS02001790           JUNCTION     0.25     0.74     6.38     0  01:58        0.73
  YS02001791           JUNCTION     0.15     0.45     5.92     0  02:01        0.44
  YS02001793           JUNCTION     0.08     0.31     5.14     0  02:03        0.31
  YS02001882           JUNCTION     0.44     1.83     8.55     0  02:01        1.83
  YS02001884           JUNCTION     0.53     1.93     8.55     0  02:01        1.93
  YS02001887           JUNCTION     0.61     2.00     8.54     0  02:00        2.00
  YS02001890           JUNCTION     0.64     1.81     8.32     0  01:45        1.81
  YS02001895           JUNCTION     0.41     1.75     8.50     0  02:00        1.75
  YS02001898           JUNCTION     0.42     1.69     8.42     0  02:05        1.69
  YS02001901           JUNCTION     0.53     1.68     8.29     0  02:05        1.67
  YS02001904           JUNCTION     0.51     1.65     8.28     0  02:00        1.64
  YS02001907           JUNCTION     0.82     1.96     8.25     0  01:46        1.96
  YS02001910           JUNCTION     0.64     2.01     8.52     0  01:58        2.01
  YS02001915           JUNCTION     0.46     2.00     8.72     0  01:57        2.00
  YS02001918           JUNCTION     0.29     1.81     8.88     0  02:00        1.81
  YS02001920           JUNCTION     0.37     2.01     9.02     0  02:00        1.96
  YS02001923           JUNCTION     0.24     2.03     9.29     0  02:00        2.03
  YS02001926           JUNCTION     0.26     1.90     9.35     0  02:00        1.90
  YS02001929           JUNCTION     0.17     1.78     9.47     0  02:00        1.78
  YS02006553           JUNCTION     0.83     2.13     8.41     0  02:00        2.13
  YS02006556           JUNCTION     0.80     2.39     8.70     0  02:00        2.39
  YS02006558           JUNCTION     0.84     2.50     8.77     0  02:00        2.50
  YS02006561           JUNCTION     0.23     1.15     7.81     0  02:00        1.07
  YS02163301           JUNCTION     0.71     2.03     8.55     0  02:00        2.03
  YS02163601           JUNCTION     0.81     2.08     8.48     0  02:05        2.07
  YS02164001           JUNCTION     0.74     2.05     8.51     0  02:00        2.05
  YSB1154              JUNCTION     0.61     2.10    11.16     0  01:58        2.10
  YSB1171              JUNCTION     0.74     1.95    10.85     0  01:45        1.95
  YSB1174              JUNCTION     0.55     1.95    11.06     0  01:59        1.95
  YSB6556              JUNCTION     0.50     1.80    10.97     0  01:57        1.80
  CC-1                 OUTFALL      0.00     0.00     0.00     0  00:00        0.00
  CC-2                 OUTFALL      0.00     0.00     0.00     0  00:00        0.00
  JK-1                 OUTFALL      0.00     0.00     0.00     0  00:00        0.00
  JK-2                 OUTFALL      0.00     0.00     0.00     0  00:00        0.00
  WSC                  OUTFALL      0.33     0.54     1.21     0  02:07        0.54
  CC-storage           STORAGE      1.05     2.10     7.60     0  02:37        2.10
  JK-storage           STORAGE      2.37     4.22     5.02     0  02:03        4.21
  XR-storage           STORAGE      7.87     9.26     7.26     0  08:00        9.26
  
  
  *******************
  Node Inflow Summary
  *******************
  
  -------------------------------------------------------------------------------------------------
                                  Maximum  Maximum                  Lateral       Total        Flow
                                  Lateral    Total  Time of Max      Inflow      Inflow     Balance
                                   Inflow   Inflow   Occurrence      Volume      Volume       Error
  Node                 Type           LPS      LPS  days hr:min    10^6 ltr    10^6 ltr     Percent
  -------------------------------------------------------------------------------------------------
  HS02004478           JUNCTION      0.00  2312.49     0  02:05           0        12.8      -0.004
  HS02004479           JUNCTION      0.00   388.06     0  01:46           0        1.27       0.066
  HS02004480           JUNCTION      0.00  2049.26     0  01:45           0        9.17       0.016
  HS02004770           JUNCTION   3914.66  4274.67     0  02:02        6.28        6.67       0.043
  HS02004777           JUNCTION      0.03   681.15     0  01:41    0.000864        2.42       0.217
  HS02004785           JUNCTION      0.15   693.52     0  01:41     0.00432        2.42       0.026
  HS02004788           JUNCTION   1420.26  1420.26     0  02:02        2.33         4.6       0.012
  HS02004792           JUNCTION   4846.76  5909.73     0  02:02        8.23        12.7       0.001
  HS02004799           JUNCTION    871.23  2013.32     0  02:01         1.3        8.82       0.037
  HS02004802           JUNCTION      0.00  1239.50     0  02:05           0        4.04       0.098
  HS02004807           JUNCTION   1088.13  2284.72     0  02:01        1.59         4.9       0.086
  HS02004817           JUNCTION      0.60  1197.08     0  02:04      0.0173        3.36       0.500
  HS02004824           JUNCTION   1529.83  2157.33     0  02:02        2.84        4.24       0.013
  HS02004830           JUNCTION      0.15   652.84     0  02:01     0.00432        1.66       0.089
  HS02004837           JUNCTION    996.05   996.05     0  02:02        1.69        2.21       0.032
  HS02004842           JUNCTION      0.00  1201.33     0  02:02           0        1.66       0.797
  HS02004848           JUNCTION   1433.82  1433.82     0  02:03        2.92        3.64       0.007
  HS02004852           JUNCTION      0.00   954.19     0  01:44           0        2.84       0.014
  HS02004856           JUNCTION    442.56  1012.92     0  02:02       0.658         3.5       0.045
  HS02004862           JUNCTION    652.13  1653.52     0  02:02        1.22        4.72       0.010
  HS02004870           JUNCTION    591.75  1287.87     0  02:14       0.874        4.88      -0.001
  HS02004876           JUNCTION    587.08  1522.59     0  02:12       0.907        5.79       0.010
  HS02004881           JUNCTION    321.26  1739.08     0  02:02       0.461        6.25       0.011
  HS02004901           JUNCTION    928.91  1194.69     0  02:01        1.39        2.16       0.080
  WS02001211           JUNCTION      7.35   207.43     0  01:35       0.212        5.44       0.612
  WS02001212           JUNCTION      0.00   214.28     0  03:09           0        5.41       0.290
  WS02001213           JUNCTION      0.00   220.06     0  03:09           0        5.39       0.332
  WS02003059           JUNCTION      0.00   225.98     0  03:08           0        5.38       0.595
  WS02003060           JUNCTION     16.53  1618.78     0  02:05       0.476        16.3       0.089
  WS02003066           JUNCTION      0.00  1403.43     0  02:05           0        10.5       0.014
  WS02003067           JUNCTION      0.00  1408.44     0  02:05           0        10.5       0.041
  WS02003069           JUNCTION      0.32  1615.75     0  02:06     0.00922        16.3       0.094
  WS02003072           JUNCTION      0.00  1614.84     0  02:06           0        16.3       0.127
  WS02003073           JUNCTION      1.82  1616.25     0  02:07      0.0524        16.3       0.132
  WS02004138           JUNCTION      0.00   380.00     0  00:00           0        5.25       0.052
  WS02004139           JUNCTION      0.32   190.95     0  00:29     0.00924        5.26       0.509
  WS02004401           JUNCTION      0.00  1402.39     0  02:05           0        10.6       0.097
  WS02004402           JUNCTION      0.00  1402.07     0  02:05           0        10.6       0.098
  WS02004403           JUNCTION      0.00  1402.13     0  02:05           0        10.6       0.095
  WS02004404           JUNCTION      0.16  1403.12     0  02:00     0.00467        10.6       0.082
  WS02004405           JUNCTION      0.04  1402.65     0  02:00      0.0011        10.6       0.114
  WS02004406           JUNCTION      0.00  1410.26     0  02:00           0        10.6       0.199
  WS02004407           JUNCTION      0.00  1405.97     0  02:00           0        10.5       0.013
  WS02004409           JUNCTION      0.00  1406.15     0  02:00           0        10.5       0.029
  WS02004410           JUNCTION      0.00  1404.07     0  02:05           0        10.5       0.045
  WS02004411           JUNCTION      0.00  1404.36     0  02:05           0        10.5       0.057
  WS02004412           JUNCTION      0.00  1405.06     0  02:05           0        10.5       0.074
  WS02004413           JUNCTION      0.00  1406.20     0  02:05           0        10.5       0.129
  WS02006109           JUNCTION      1.23  1289.69     0  02:00      0.0354        10.3       0.078
  WS02006110           JUNCTION      0.00  1125.91     0  02:37           0        9.55       0.078
  WS02006111           JUNCTION      0.00  1126.12     0  02:37           0        9.54       0.008
  WS02006112           JUNCTION    755.15  1592.80     0  02:01        1.14        10.7       0.182
  WS02006113           JUNCTION      0.00  1126.14     0  02:37           0        9.54       0.022
  WS02006115           JUNCTION      0.00  1416.83     0  02:00           0        10.6       0.065
  WS02006116           JUNCTION      0.00  1402.57     0  02:05           0        10.6       0.045
  WS02006228           JUNCTION      0.00  1288.19     0  01:55           0        10.3       0.022
  WS02006229           JUNCTION      0.00  2305.58     0  01:53           0        14.7       0.046
  WS02006230           JUNCTION     10.28  1027.45     0  02:05       0.296         6.4       0.147
  WS02006231           JUNCTION      0.00   532.17     0  03:46           0        4.16      -0.137
  WS02006232           JUNCTION      0.00   530.45     0  03:46           0        4.14       0.102
  WS02006234           JUNCTION      0.00   526.00     0  03:46           0        4.11      -0.079
  WS02006235           JUNCTION      0.00   521.03     0  03:45           0        4.01       0.053
  WS02006238           JUNCTION      0.00   424.25     0  03:57           0        3.77      -0.082
  WS02006239           JUNCTION      0.00   424.12     0  03:58           0        3.75      -0.086
  WS02006240           JUNCTION      0.00   424.01     0  03:58           0        3.73      -0.025
  WS02006242           JUNCTION      0.00   423.90     0  03:58           0        3.73       0.010
  WS02006243           JUNCTION      0.00   423.70     0  03:58           0        2.99      -0.038
  WS02006245           JUNCTION      0.00   423.79     0  03:57           0        2.99       0.248
  WS02006247           JUNCTION      0.00   423.86     0  03:58           0        2.98       0.012
  WS02006248           JUNCTION      0.00   424.43     0  03:57           0        3.34       0.006
  WS02006249           JUNCTION      0.00  1408.05     0  02:01           0        8.41       0.051
  WS02006251           JUNCTION      0.08  1819.25     0  02:01     0.00222        8.93      -0.015
  WS02006252           JUNCTION      0.00   813.36     0  02:01           0        4.13      -0.025
  WS02006253           JUNCTION     82.92  1819.28     0  02:01       0.111        6.37      -0.007
  WS02006256           JUNCTION      0.00   300.00     0  00:00           0         2.1      -0.081
  WS02006280           JUNCTION      0.00  2303.50     0  02:05           0        12.8       0.004
  WS02006284           JUNCTION      0.10  2303.96     0  01:53     0.00275        12.8       0.010
  WS02006287           JUNCTION      0.00  2312.69     0  02:00           0        12.8       0.008
  WSF200               JUNCTION      0.00  1403.51     0  02:05           0        10.5       0.006
  YS02001580           JUNCTION      0.00    67.22     0  01:39           0     0.00429       1.042
  YS02001583           JUNCTION      0.00   110.38     0  01:39           0      0.0159      -3.725
  YS02001586           JUNCTION   1797.59  1797.61     0  02:03        3.82        3.83       0.025
  YS02001590           JUNCTION      0.00   321.17     0  02:05           0        1.96      -0.012
  YS02001593           JUNCTION      0.00   319.66     0  02:00           0        1.96       0.001
  YS02001596           JUNCTION      0.00   318.08     0  02:07           0        1.96      -0.005
  YS02001600           JUNCTION      0.00   318.14     0  02:36           0        1.96       0.008
  YS02001601           JUNCTION   3047.71  3365.03     0  02:02        5.08        7.04       0.011
  YS02001602           JUNCTION      0.00   496.45     0  01:39           0        2.98       0.014
  YS02001605           JUNCTION      0.00   496.03     0  01:39           0        2.72       0.019
  YS02001607           JUNCTION      0.00   496.42     0  01:39           0        2.72       0.070
  YS02001610           JUNCTION      0.00   957.75     0  02:00           0        3.74       0.064
  YS02001613           JUNCTION      0.00   621.70     0  02:00           0        2.72       0.062
  YS02001616           JUNCTION      0.00   643.78     0  02:00           0        2.73       0.017
  YS02001619           JUNCTION   3184.99  3184.99     0  02:03        6.15        7.85       0.001
  YS02001622           JUNCTION      0.00  1053.94     0  02:10           0        5.92       0.001
  YS02001625           JUNCTION      0.00  1505.49     0  02:07           0        6.68       0.167
  YS02001629           JUNCTION      0.00  1138.86     0  02:04           0        4.32      -0.014
  YS02001633           JUNCTION   2291.56  2291.56     0  02:02        3.75        6.87       0.048
  YS02001641           JUNCTION      0.00  1285.17     0  01:44           0        5.62       0.050
  YS02001644           JUNCTION   2039.35  3784.64     0  02:02        3.26        9.37       0.035
  YS02001647           JUNCTION      0.00  1655.81     0  01:45           0        6.47       0.003
  YS02001649           JUNCTION      0.00  2019.17     0  02:01           0        9.01       0.000
  YS02001652           JUNCTION      0.00  2015.69     0  02:01           0        3.03      -0.037
  YS02001655           JUNCTION      0.15  2009.12     0  02:01     0.00443        3.03       0.022
  YS02001658           JUNCTION      0.00  1999.73     0  02:01           0        3.03      -0.018
  YS02001661           JUNCTION      0.00  1988.42     0  02:01           0        3.03      -0.038
  YS02001664           JUNCTION   1978.41  1978.41     0  02:01        3.03        3.03      -0.005
  YS02001745           JUNCTION   1235.27  1235.27     0  02:01        1.79        1.79       0.069
  YS02001748           JUNCTION      0.04  1241.54     0  02:01      0.0013        1.79      -0.126
  YS02001751           JUNCTION      0.01  1249.12     0  02:01    0.000317         1.8       0.020
  YS02001754           JUNCTION      0.26  1256.10     0  02:01     0.00749        1.81      -0.077
  YS02001757           JUNCTION      0.00  3033.42     0  01:58           0        14.5       0.013
  YS02001759           JUNCTION   1720.45  1720.45     0  02:01        2.49        4.45      -0.007
  YS02001762           JUNCTION      0.00   688.07     0  01:51           0         2.1       0.000
  YS02001765           JUNCTION      0.00   687.81     0  01:51           0         2.1       0.006
  YS02001767           JUNCTION      0.54   688.04     0  01:51      0.0154         2.1       0.007
  YS02001770           JUNCTION   2438.27  2887.04     0  02:02        3.75        3.93      -0.014
  YS02001774           JUNCTION      0.00   852.10     0  02:07           0        1.12       0.099
  YS02001779           JUNCTION      0.01   851.79     0  02:04    0.000144        1.08      -0.032
  YS02001783           JUNCTION      0.00  1226.66     0  02:01           0        6.08       0.004
  YS02001784           JUNCTION      1.06  1228.19     0  02:01      0.0305        6.11       0.007
  YS02001786           JUNCTION      0.06  1230.15     0  02:01     0.00162        6.12       0.012
  YS02001788           JUNCTION      0.07  1234.08     0  02:00     0.00204        6.12       0.005
  YS02001790           JUNCTION      0.15  1228.68     0  02:01     0.00446        6.12       0.027
  YS02001791           JUNCTION      0.00  1330.25     0  02:01           0        6.12      -0.043
  YS02001793           JUNCTION      0.00  1289.22     0  02:01           0        6.12       0.004
  YS02001882           JUNCTION      0.00    98.61     0  02:05           0      0.0142       3.915
  YS02001884           JUNCTION      0.00    73.42     0  02:05           0      0.0512       4.489
  YS02001887           JUNCTION   1837.33  1842.69     0  02:01        2.56        2.59       0.172
  YS02001890           JUNCTION      0.00  1844.72     0  02:01           0        2.55       0.195
  YS02001895           JUNCTION      0.00   521.54     0  02:00           0        1.81       0.097
  YS02001898           JUNCTION      0.00   523.92     0  02:00           0        1.81       0.002
  YS02001901           JUNCTION      0.00   518.15     0  01:58           0        1.81       0.183
  YS02001904           JUNCTION      0.00   518.63     0  02:01           0        1.82       0.151
  YS02001907           JUNCTION      0.00  3798.72     0  02:01           0        7.41       0.243
  YS02001910           JUNCTION      0.00  1993.14     0  02:07           0        5.02       0.144
  YS02001915           JUNCTION   2201.10  3288.44     0  02:02        3.58        5.56       0.028
  YS02001918           JUNCTION      0.00  1089.20     0  02:02           0           2       0.009
  YS02001920           JUNCTION      2.87  1089.08     0  02:02      0.0827        1.99       0.051
  YS02001923           JUNCTION      0.04  1085.18     0  02:02     0.00109         1.9      -0.010
  YS02001926           JUNCTION      0.05  1083.86     0  02:02      0.0015        1.89       0.000
  YS02001929           JUNCTION   1082.84  1082.84     0  02:02        1.88        1.88      -0.013
  YS02006553           JUNCTION      0.00  1284.56     0  02:01           0        3.53       0.339
  YS02006556           JUNCTION      0.00  1273.34     0  02:01           0        3.54       0.229
  YS02006558           JUNCTION   2488.90  2488.90     0  02:01        3.77         6.7       0.054
  YS02006561           JUNCTION      0.00  1225.10     0  02:01           0        6.08       0.000
  YS02163301           JUNCTION      0.00  1138.87     0  02:04           0        4.32       0.034
  YS02163601           JUNCTION      0.11  1287.49     0  01:44     0.00317        5.62       0.084
  YS02164001           JUNCTION      0.00  1285.04     0  01:43           0        5.62       0.039
  YSB1154              JUNCTION   1006.28  1006.28     0  02:02        1.55        1.55       0.093
  YSB1171              JUNCTION      0.00  1628.81     0  02:00           0        2.99       0.211
  YSB1174              JUNCTION    864.93   864.93     0  02:01        1.19        1.19       0.105
  YSB6556              JUNCTION      0.00   725.69     0  02:06           0        1.48       0.076
  CC-1                 OUTFALL       0.00   683.00     0  00:00           0        5.84       0.000
  CC-2                 OUTFALL       0.00   683.00     0  00:00           0        5.62       0.000
  JK-1                 OUTFALL       0.00  1000.00     0  00:00           0        3.93       0.000
  JK-2                 OUTFALL       0.00  1000.00     0  00:00           0      0.0484       0.000
  WSC                  OUTFALL       0.00  1616.22     0  02:07           0        16.3       0.000
  CC-storage           STORAGE       0.00  3032.44     0  01:58           0        16.7      -0.134
  JK-storage           STORAGE       0.00  1286.57     0  02:01           0        6.27       0.086
  XR-storage           STORAGE     200.00   200.00     0  00:00        5.76        6.36       0.001
  
  
  **********************
  Node Surcharge Summary
  **********************
  
  Surcharging occurs when water rises above the top of the highest conduit.
  ---------------------------------------------------------------------
                                               Max. Height   Min. Depth
                                   Hours       Above Crown    Below Rim
  Node                 Type      Surcharged         Meters       Meters
  ---------------------------------------------------------------------
  HS02004478           JUNCTION        1.00          0.695        0.245
  HS02004479           JUNCTION        1.18          0.918        0.132
  HS02004480           JUNCTION        1.23          0.991        0.109
  HS02004770           JUNCTION        1.10          0.720        0.000
  HS02004777           JUNCTION        1.11          0.780        0.000
  HS02004785           JUNCTION        1.04          0.790        0.000
  HS02004788           JUNCTION        1.02          0.720        0.000
  HS02004792           JUNCTION        1.19          0.900        0.000
  HS02004799           JUNCTION        1.38          1.060        0.000
  HS02004802           JUNCTION        1.25          1.097        0.113
  HS02004807           JUNCTION        1.22          1.220        0.000
  HS02004817           JUNCTION        1.77          1.717        0.023
  HS02004824           JUNCTION        1.02          1.310        0.000
  HS02004830           JUNCTION        0.99          1.330        0.000
  HS02004837           JUNCTION        0.94          1.340        0.000
  HS02004842           JUNCTION        1.12          1.520        0.000
  HS02004848           JUNCTION        0.89          1.370        0.000
  HS02004852           JUNCTION        0.93          1.420        0.000
  HS02004856           JUNCTION        0.91          1.300        0.000
  HS02004862           JUNCTION        0.96          1.300        0.000
  HS02004870           JUNCTION        0.99          1.400        0.000
  HS02004876           JUNCTION        1.09          1.560        0.000
  HS02004881           JUNCTION        1.06          1.450        0.000
  HS02004901           JUNCTION        1.10          0.720        0.000
  WS02004401           JUNCTION        1.94          1.149        0.511
  WS02004402           JUNCTION        1.97          1.064        0.676
  WS02004403           JUNCTION        1.98          0.991        1.039
  WS02004404           JUNCTION        2.34          1.206        1.574
  WS02004405           JUNCTION        2.13          1.103        1.697
  WS02004406           JUNCTION        2.08          0.848        1.602
  WS02004407           JUNCTION        0.21          0.105        2.235
  WS02004409           JUNCTION        1.59          0.513        1.847
  WS02004410           JUNCTION        1.58          0.402        2.138
  WS02004411           JUNCTION        1.53          0.296        2.234
  WS02004412           JUNCTION        1.44          0.176        2.134
  WS02004413           JUNCTION        1.75          0.187        2.013
  WS02006109           JUNCTION        2.72          1.820        0.000
  WS02006110           JUNCTION        2.56          1.590        0.260
  WS02006111           JUNCTION        1.71          1.188        0.682
  WS02006112           JUNCTION        2.63          1.680        0.000
  WS02006113           JUNCTION        1.73          1.307        0.623
  WS02006115           JUNCTION        1.85          1.292        0.958
  WS02006116           JUNCTION        1.86          1.208        1.082
  WS02006228           JUNCTION        2.72          2.200        0.000
  WS02006229           JUNCTION        1.58          1.070        0.000
  WS02006230           JUNCTION        2.43          1.570        0.000
  WS02006231           JUNCTION        2.54          1.530        0.000
  WS02006232           JUNCTION        2.64          1.480        0.000
  WS02006234           JUNCTION        2.59          1.240        0.000
  WS02006235           JUNCTION        2.61          1.290        0.000
  WS02006238           JUNCTION        2.62          1.222        0.208
  WS02006239           JUNCTION        2.59          1.117        0.173
  WS02006240           JUNCTION        2.59          1.000        0.390
  WS02006242           JUNCTION        2.60          0.820        0.000
  WS02006243           JUNCTION        2.57          0.722        0.048
  WS02006245           JUNCTION        2.56          0.614        0.236
  WS02006247           JUNCTION        2.56          0.570        0.190
  WS02006248           JUNCTION        2.54          0.380        0.000
  WS02006249           JUNCTION        2.55          0.390        0.000
  WS02006251           JUNCTION        2.51          1.180        0.000
  WS02006252           JUNCTION        2.66          1.100        0.000
  WS02006253           JUNCTION        2.52          2.451        0.029
  WS02006256           JUNCTION        4.87          2.050        0.000
  WS02006280           JUNCTION        1.42          0.762        0.018
  WS02006284           JUNCTION        1.28          0.734        0.066
  WS02006287           JUNCTION        1.13          0.789        0.101
  YS02001580           JUNCTION        1.23          0.450        0.000
  YS02001583           JUNCTION        1.23          0.500        0.000
  YS02001586           JUNCTION        1.41          0.510        0.000
  YS02001590           JUNCTION        1.48          0.750        0.000
  YS02001593           JUNCTION        1.48          0.692        0.148
  YS02001596           JUNCTION        1.59          0.945        0.125
  YS02001600           JUNCTION        1.72          1.190        0.000
  YS02001601           JUNCTION        1.99          1.440        0.000
  YS02001602           JUNCTION        1.92          1.270        0.000
  YS02001605           JUNCTION        1.88          1.180        0.000
  YS02001607           JUNCTION        1.49          0.658        0.022
  YS02001610           JUNCTION        1.51          0.680        0.000
  YS02001613           JUNCTION        1.48          0.700        0.000
  YS02001616           JUNCTION        1.45          0.610        0.000
  YS02001619           JUNCTION        1.44          0.610        0.000
  YS02001622           JUNCTION        1.44          0.620        0.000
  YS02001625           JUNCTION        1.60          0.780        0.000
  YS02001629           JUNCTION        1.39          0.470        0.000
  YS02001633           JUNCTION        1.66          1.060        0.000
  YS02001641           JUNCTION        1.62          1.009        0.091
  YS02001644           JUNCTION        1.59          0.920        0.000
  YS02001647           JUNCTION        1.39          0.847        0.053
  YS02001649           JUNCTION        1.52          1.050        0.000
  YS02001652           JUNCTION        1.35          1.130        0.000
  YS02001655           JUNCTION        1.24          1.200        0.000
  YS02001658           JUNCTION        0.78          1.300        0.000
  YS02001661           JUNCTION        0.30          1.390        0.000
  YS02001664           JUNCTION        0.13          1.310        0.000
  YS02001745           JUNCTION        0.12          0.470        0.880
  YS02001748           JUNCTION        0.62          0.681        0.509
  YS02001751           JUNCTION        1.13          0.836        0.364
  YS02001754           JUNCTION        1.30          0.939        0.211
  YS02001757           JUNCTION        1.59          1.210        0.000
  YS02001759           JUNCTION        1.51          1.210        0.000
  YS02001762           JUNCTION        1.48          1.150        0.000
  YS02001765           JUNCTION        1.45          1.100        0.000
  YS02001767           JUNCTION        1.42          1.023        0.007
  YS02001770           JUNCTION        1.40          0.920        0.000
  YS02001774           JUNCTION        1.47          1.050        0.000
  YS02001779           JUNCTION        1.30          0.680        0.000
  YS02001783           JUNCTION        1.02          0.744        0.856
  YS02001784           JUNCTION        0.99          0.698        0.792
  YS02001786           JUNCTION        0.83          0.162        1.268
  YS02001882           JUNCTION        0.94          0.830        0.000
  YS02001884           JUNCTION        0.95          0.870        0.000
  YS02001887           JUNCTION        1.01          0.950        0.000
  YS02001890           JUNCTION        1.03          0.760        0.000
  YS02001895           JUNCTION        0.92          0.750        0.000
  YS02001898           JUNCTION        0.91          0.659        0.081
  YS02001901           JUNCTION        0.98          0.685        0.185
  YS02001904           JUNCTION        0.97          0.646        0.204
  YS02001907           JUNCTION        1.35          0.950        0.000
  YS02001910           JUNCTION        1.07          1.014        0.086
  YS02001915           JUNCTION        0.94          1.000        0.000
  YS02001918           JUNCTION        0.82          0.810        0.000
  YS02001920           JUNCTION        0.84          1.012        0.128
  YS02001923           JUNCTION        0.38          0.820        0.000
  YS02001926           JUNCTION        0.41          0.900        0.000
  YS02001929           JUNCTION        0.26          0.780        0.000
  YS02006553           JUNCTION        1.38          1.125        0.065
  YS02006556           JUNCTION        1.20          1.350        0.000
  YS02006558           JUNCTION        1.18          1.400        0.000
  YS02006561           JUNCTION        0.78          0.350        0.800
  YS02163301           JUNCTION        1.63          1.030        0.000
  YS02163601           JUNCTION        1.70          1.080        0.000
  YS02164001           JUNCTION        1.61          1.052        0.048
  YSB1154              JUNCTION        1.55          1.400        0.000
  YSB1171              JUNCTION        1.55          1.100        0.000
  YSB1174              JUNCTION        1.43          1.250        0.000
  YSB6556              JUNCTION        1.32          1.100        0.000
  
  
  *********************
  Node Flooding Summary
  *********************
  
  Flooding refers to all water that overflows a node, whether it ponds or not.
  --------------------------------------------------------------------------
                                                             Total   Maximum
                                 Maximum   Time of Max       Flood    Ponded
                        Hours       Rate    Occurrence      Volume     Depth
  Node                 Flooded       LPS   days hr:min    10^6 ltr    Meters
  --------------------------------------------------------------------------
  HS02004770              0.81   4007.79      0  02:02       3.632     0.000
  HS02004777              0.01     48.17      0  02:05       0.001     0.000
  HS02004785              0.01     61.28      0  02:05       0.000     0.000
  HS02004788              0.01     33.79      0  02:05       0.000     0.000
  HS02004792              0.81   4767.04      0  02:02       5.162     0.000
  HS02004799              0.51    708.52      0  02:01       0.537     0.000
  HS02004807              0.41   1052.58      0  02:01       0.823     0.000
  HS02004824              0.34    961.17      0  02:02       0.642     0.000
  HS02004830              0.01      0.76      0  02:01       0.000     0.000
  HS02004837              0.01      1.63      0  02:00       0.000     0.000
  HS02004842              0.33   1200.70      0  02:02       0.716     0.000
  HS02004848              0.01      3.71      0  02:00       0.000     0.000
  HS02004852              0.01      0.30      0  02:00       0.000     0.000
  HS02004856              0.03     11.14      0  02:02       0.001     0.000
  HS02004862              0.30   1366.16      0  02:02       0.705     0.000
  HS02004870              0.01      4.80      0  02:05       0.000     0.000
  HS02004876              0.05     62.50      0  02:01       0.005     0.000
  HS02004881              0.01      1.17      0  02:00       0.000     0.000
  HS02004901              0.93   1194.55      0  02:01       1.901     0.000
  WS02006109              0.89    451.75      0  02:00       0.757     0.000
  WS02006112              0.12    192.99      0  02:01       0.047     0.000
  WS02006228              0.01      5.60      0  01:45       0.000     0.000
  WS02006229              0.01      9.75      0  01:45       0.000     0.000
  WS02006230              1.29    575.27      0  02:00       1.975     0.000
  WS02006231              0.01      0.21      0  02:00       0.000     0.000
  WS02006232              0.32      5.63      0  02:00       0.000     0.000
  WS02006234              1.41    129.25      0  01:45       0.617     0.000
  WS02006235              0.01      0.91      0  02:05       0.000     0.000
  WS02006242              1.54    137.89      0  02:08       0.731     0.000
  WS02006248              1.69    339.40      0  02:34       1.947     0.000
  WS02006249              2.49   1347.05      0  02:01       6.665     0.000
  WS02006251              0.01      7.92      0  02:05       0.000     0.000
  WS02006252              0.99    812.54      0  02:01       1.575     0.000
  WS02006256              1.95    293.19      0  00:00       1.347     0.000
  YS02001580              0.01     54.98      0  01:39       0.000     0.000
  YS02001583              0.01     67.18      0  01:39       0.000     0.000
  YS02001586              1.01   1479.86      0  02:03       1.854     0.000
  YS02001590              0.01      0.09      0  02:34       0.000     0.000
  YS02001600              0.01      2.93      0  01:37       0.000     0.000
  YS02001601              1.36   2967.19      0  02:02       4.057     0.000
  YS02001602              1.27     62.39      0  02:34       0.265     0.000
  YS02001605              0.01      0.30      0  02:00       0.000     0.000
  YS02001610              1.12    957.39      0  02:00       2.047     0.000
  YS02001613              0.01      0.56      0  02:05       0.000     0.000
  YS02001616              0.11     27.99      0  02:00       0.001     0.000
  YS02001619              0.32   1515.25      0  02:03       0.889     0.000
  YS02001622              0.01      0.50      0  02:05       0.000     0.000
  YS02001625              1.14   1505.26      0  02:07       3.555     0.000
  YS02001629              0.37    686.82      0  02:04       0.442     0.000
  YS02001633              0.09    252.58      0  02:02       0.045     0.000
  YS02001644              0.61   3784.61      0  02:02       3.371     0.000
  YS02001649              0.10    765.03      0  02:01       0.137     0.000
  YS02001652              0.01      0.26      0  02:00       0.000     0.000
  YS02001655              0.01      1.85      0  02:00       0.000     0.000
  YS02001658              0.01      0.93      0  02:00       0.000     0.000
  YS02001661              0.01      0.64      0  02:00       0.000     0.000
  YS02001664              0.01      5.21      0  02:00       0.000     0.000
  YS02001757              0.01      0.25      0  02:00       0.000     0.000
  YS02001759              0.01      3.27      0  02:00       0.000     0.000
  YS02001765              0.01      0.71      0  02:00       0.000     0.000
  YS02001770              0.24   2035.29      0  02:02       0.886     0.000
  YS02001774              0.01      0.64      0  02:05       0.000     0.000
  YS02001779              0.53    851.49      0  02:04       1.058     0.000
  YS02001882              0.01     67.84      0  02:05       0.000     0.000
  YS02001884              0.01     26.60      0  02:05       0.000     0.000
  YS02001887              0.01      5.22      0  02:00       0.000     0.000
  YS02001890              0.43   1328.04      0  02:01       0.735     0.000
  YS02001895              0.01      0.68      0  02:00       0.000     0.000
  YS02001907              0.74   3795.40      0  02:01       4.455     0.000
  YS02001915              0.21   1296.27      0  02:02       0.520     0.000
  YS02001918              0.01     31.63      0  02:00       0.000     0.000
  YS02001923              0.01      0.72      0  02:00       0.000     0.000
  YS02001926              0.01      0.03      0  02:00       0.000     0.000
  YS02001929              0.01      2.75      0  02:00       0.000     0.000
  YS02006556              0.01      1.09      0  02:00       0.000     0.000
  YS02006558              0.01      5.84      0  02:00       0.000     0.000
  YS02163301              0.01      0.35      0  02:00       0.000     0.000
  YS02163601              0.01     29.91      0  02:05       0.000     0.000
  YSB1154                 0.13    280.57      0  02:02       0.076     0.000
  YSB1171                 0.67   1628.73      0  02:00       2.097     0.000
  YSB1174                 0.06    114.21      0  02:01       0.014     0.000
  YSB6556                 0.17     85.86      0  02:05       0.045     0.000
  
  
  **********************
  Storage Volume Summary
  **********************
  
  --------------------------------------------------------------------------------------------------
                         Average     Avg  Evap Exfil       Maximum     Max    Time of Max    Maximum
                          Volume    Pcnt  Pcnt  Pcnt        Volume    Pcnt     Occurrence    Outflow
  Storage Unit           1000 m3    Full  Loss  Loss       1000 m3    Full    days hr:min        LPS
  --------------------------------------------------------------------------------------------------
  CC-storage               2.938      46     0     0         5.844      91       0  02:37    1783.53
  JK-storage               0.119      41     0     0         0.212      73       0  02:03    2300.00
  XR-storage               0.945      66     0     0         1.111      77       0  08:00     380.00
  
  
  ***********************
  Outfall Loading Summary
  ***********************
  
  -----------------------------------------------------------
                         Flow       Avg       Max       Total
                         Freq      Flow      Flow      Volume
  Outfall Node           Pcnt       LPS       LPS    10^6 ltr
  -----------------------------------------------------------
  CC-1                  48.42    683.00    683.00       5.838
  CC-2                  46.90    683.00    683.00       5.617
  JK-1                  19.53   1000.00   1000.00       3.934
  JK-2                   0.18   1000.00   1000.00       0.048
  WSC                   99.95    751.36   1616.22      16.296
  -----------------------------------------------------------
  System                43.00   4117.36   1616.22      31.733
  
  
  ********************
  Link Flow Summary
  ********************
  
  -----------------------------------------------------------------------------
                                 Maximum  Time of Max   Maximum    Max/    Max/
                                  |Flow|   Occurrence   |Veloc|    Full    Full
  Link                 Type          LPS  days hr:min     m/sec    Flow   Depth
  -----------------------------------------------------------------------------
  1                    CONDUIT   1616.22     0  02:07      3.76    0.56    0.54
  HS02004478WS02006287 CONDUIT   2312.69     0  02:00      2.58    0.65    1.00
  HS02004479HS02004480 CONDUIT    388.38     0  01:46      0.55    0.38    1.00
  HS02004480HS02004478 CONDUIT   2051.27     0  01:45      2.93    8.64    1.00
  HS02004770HS02004777 CONDUIT    681.12     0  01:41      0.97    1.25    1.00
  HS02004777HS02004785 CONDUIT    693.37     0  01:41      1.05    0.85    1.00
  HS02004785HS02004788 CONDUIT    646.80     0  01:42      1.35    4.88    1.00
  HS02004788HS02004792 CONDUIT   1081.78     0  02:01      1.55    0.72    1.00
  HS02004792HS02004799 CONDUIT   1558.44     0  01:43      2.23    0.95    1.00
  HS02004799HS02004480 CONDUIT   1705.16     0  01:43      2.44    2.15    1.00
  HS02004802HS02004478 CONDUIT   1240.06     0  02:05      1.77    1.09    1.00
  HS02004807HS02004802 CONDUIT   1239.50     0  02:05      1.77    2.37    1.00
  HS02004817HS02004807 CONDUIT   1197.03     0  02:07      1.71    0.71    1.00
  HS02004817HS02004824 CONDUIT   1196.48     0  02:04      1.71    0.54    1.00
  HS02004824HS02004830 CONDUIT    653.13     0  02:01      0.93    0.85    1.00
  HS02004830HS02004837 CONDUIT    652.69     0  02:01      0.93    0.65    1.00
  HS02004837HS02004842 CONDUIT    732.62     0  01:45      1.05    0.44    1.00
  HS02004842HS02004848 CONDUIT    853.12     0  02:02      1.22    0.50    1.00
  HS02004848HS02004852 CONDUIT    954.19     0  01:44      1.51    1.08    1.00
  HS02004852HS02004856 CONDUIT    914.19     0  01:44      1.42    1.05    1.00
  HS02004856HS02004862 CONDUIT   1002.48     0  02:02      1.62    1.00    1.00
  HS02004862HS02004870 CONDUIT   1100.56     0  02:15      1.65    1.19    1.00
  HS02004870HS02004876 CONDUIT   1288.23     0  02:14      1.84    0.85    1.00
  HS02004876HS02004881 CONDUIT   1522.69     0  02:12      2.30   16.20    1.00
  HS02004881HS02006253 CONDUIT   1739.48     0  02:02      2.77    0.34    1.00
  HS02004901HS02004770 CONDUIT    265.79     0  02:30      0.38    1.00    1.00
  WS02001211WS02001212 CONDUIT    214.28     0  03:09      0.54    0.16    0.72
  WS02001212WS02001213 CONDUIT    220.06     0  03:09      1.04    0.34    0.59
  WS02001213WS02003059 CONDUIT    225.98     0  03:08      0.47    0.37    0.93
  WS02003059WS02003060 CONDUIT    233.52     0  03:08      0.66    0.15    0.84
  WS02003060WS02003069 CONDUIT   1615.43     0  02:06      2.12    0.63    0.64
  WS02003066WSF200     CONDUIT   1403.51     0  02:05      3.29    0.24    0.41
  WS02003067WS02003066 CONDUIT   1403.43     0  02:05      2.09    0.45    0.58
  WS02003069WS02003072 CONDUIT   1614.84     0  02:06      1.94    0.78    0.69
  WS02003072WS02003073 CONDUIT   1614.43     0  02:07      2.11    3.49    0.64
  WS02004138WS02004139 CONDUIT    190.63     0  00:29      2.18    0.04    0.43
  WS02004139WS02001211 CONDUIT    200.08     0  01:35      0.54    0.25    0.63
  WS02004401WS02004402 CONDUIT   1402.07     0  02:05      1.79    1.68    1.00
  WS02004402WS02004403 CONDUIT   1402.13     0  02:05      1.79    2.01    1.00
  WS02004403WS02004404 CONDUIT   1402.96     0  02:00      1.79    1.01    1.00
  WS02004404WS02004405 CONDUIT   1402.62     0  02:00      1.79   13.74    1.00
  WS02004405WS02004406 CONDUIT   1410.26     0  02:00      1.80    2.78    1.00
  WS02004406WS02004407 CONDUIT   1405.97     0  02:00      1.79    0.63    1.00
  WS02004407WS02004409 CONDUIT   1406.15     0  02:00      1.91    0.50    1.00
  WS02004409WS02004410 CONDUIT   1404.07     0  02:05      1.79    1.82    1.00
  WS02004410WS02004411 CONDUIT   1404.36     0  02:05      1.79    1.92    1.00
  WS02004411WS02004412 CONDUIT   1405.06     0  02:05      1.79    2.00    1.00
  WS02004412WS02004413 CONDUIT   1406.20     0  02:05      1.79    0.94    1.00
  WS02004413WS02003067 CONDUIT   1408.44     0  02:05      2.14    0.60    0.78
  WS02006109WS02006110 CONDUIT   1125.91     0  02:37      2.24    2.16    1.00
  WS02006110WS02006113 CONDUIT   1126.14     0  02:37      2.24    1.02    1.00
  WS02006111WS02006112 CONDUIT   1126.34     0  02:37      2.24    0.54    1.00
  WS02006112WS02006115 CONDUIT   1416.83     0  02:00      1.80    0.84    1.00
  WS02006113WS02006111 CONDUIT   1126.12     0  02:37      2.70    1.35    1.00
  WS02006115WS02006116 CONDUIT   1402.57     0  02:05      1.79    1.80    1.00
  WS02006116WS02004401 CONDUIT   1402.39     0  02:05      1.79    1.93    1.00
  WS02006228WS02006109 CONDUIT   1288.46     0  02:00      2.56    5.63    1.00
  WS02006229WS02006228 CONDUIT   1288.19     0  01:55      2.56    4.27    1.00
  WS02006230WS02006229 CONDUIT   1017.17     0  02:05      2.64   22.64    1.00
  WS02006231WS02006230 CONDUIT    533.65     0  03:46      1.39    8.09    1.00
  WS02006232WS02006231 CONDUIT    532.17     0  03:46      1.38    1.12    1.00
  WS02006234WS02006232 CONDUIT    530.45     0  03:46      1.41    1.07    1.00
  WS02006235WS02006234 CONDUIT    526.00     0  03:46      1.37    5.55    1.00
  WS02006238WS02006235 CONDUIT    424.46     0  03:58      1.45    0.95    1.00
  WS02006239WS02006238 CONDUIT    424.25     0  03:57      1.12    1.36    1.00
  WS02006240WS02006239 CONDUIT    424.12     0  03:58      1.26    1.33    1.00
  WS02006242WS02006240 CONDUIT    424.01     0  03:58      1.14    1.68    1.00
  WS02006243WS02006242 CONDUIT    423.90     0  03:58      1.34    0.91    1.00
  WS02006245WS02006243 CONDUIT    423.70     0  03:58      1.39    1.25    1.00
  WS02006247WS02006245 CONDUIT    423.79     0  03:57      1.37    3.36    1.00
  WS02006248WS02006247 CONDUIT    423.86     0  03:58      1.38    0.92    1.00
  WS02006249WS02006248 CONDUIT    424.43     0  03:57      1.38    2.33    1.00
  WS02006251WS02006249 CONDUIT   1408.05     0  02:01      3.66    4.06    1.00
  WS02006252WS02006251 CONDUIT    413.36     0  02:01     24.89    1.52    1.00
  WS02006253WS02006251 CONDUIT   1819.18     0  02:01      4.73    5.45    1.00
  WS02006256WS02006235 CONDUIT    288.93     0  00:00      4.23    3.06    1.00
  WS02006280WS02006229 CONDUIT   2305.58     0  01:53      4.64    0.49    1.00
  WS02006284WS02006280 CONDUIT   2303.50     0  02:05      2.96    0.96    1.00
  WS02006287WS02006284 CONDUIT   2303.87     0  01:53      2.93    1.07    1.00
  WSF200WS02003060     CONDUIT   1403.93     0  01:59      2.39    0.31    0.53
  YS02001580YS02001583 CONDUIT     67.22     0  01:39      0.51    0.26    1.00
  YS02001583YS02001586 CONDUIT    110.38     0  01:39      0.46    0.17    1.00
  YS02001586YS02001590 CONDUIT    321.17     0  02:05      1.24    0.56    1.00
  YS02001590YS02001593 CONDUIT    319.66     0  02:00      1.13    2.01    1.00
  YS02001593YS02001596 CONDUIT    318.08     0  02:07      1.69    0.50    1.00
  YS02001596YS02001600 CONDUIT    318.14     0  02:36      1.26    0.62    1.00
  YS02001600YS02001601 CONDUIT    318.59     0  02:05      1.13    0.55    1.00
  YS02001601YS02001602 CONDUIT    496.45     0  01:39      1.76    1.79    1.00
  YS02001602YS02001605 CONDUIT    496.03     0  01:39      1.75   10.50    1.00
  YS02001605YS02001607 CONDUIT    496.42     0  01:39      1.76    2.72    1.00
  YS02001607YS02001610 CONDUIT    499.05     0  01:38      0.64    0.47    1.00
  YS02001610YS02001613 CONDUIT    621.40     0  02:00      0.79    0.72    1.00
  YS02001613YS02001616 CONDUIT    621.70     0  02:00      0.79    0.53    1.00
  YS02001616YS02001619 CONDUIT    643.78     0  02:00      0.82    1.12    1.00
  YS02001619YS02001622 CONDUIT   1053.94     0  02:10      1.34    1.55    1.00
  YS02001622YS02001625 CONDUIT   1053.72     0  02:04      1.34    0.56    1.00
  YS02001625YS02001629 CONDUIT    907.17     0  01:43      1.16    0.43    1.00
  YS02001629YS02163301 CONDUIT   1138.86     0  02:04      1.45    1.40    1.00
  YS02001633YS02163601 CONDUIT   1287.38     0  01:44      1.64    1.35    1.00
  YS02001641YS02001644 CONDUIT   1285.28     0  01:44      1.64    4.15    1.00
  YS02001644YS02001647 CONDUIT   1655.81     0  01:45      2.12    0.97    1.00
  YS02001647YS02001649 CONDUIT   1664.61     0  01:45      2.28    0.88    1.00
  YS02001649YS02001757 CONDUIT   1813.03     0  01:44      2.40    1.10    1.00
  YS02001652YS02001649 CONDUIT   2019.17     0  02:01      2.57    1.00    1.00
  YS02001655YS02001652 CONDUIT   2015.69     0  02:01      2.57    0.98    1.00
  YS02001658YS02001655 CONDUIT   2008.96     0  02:01      2.56    0.85    1.00
  YS02001661YS02001658 CONDUIT   1999.73     0  02:01      2.55    0.78    1.00
  YS02001664YS02001661 CONDUIT   1988.42     0  02:01      2.53    0.62    1.00
  YS02001745YS02001748 CONDUIT   1241.50     0  02:01      2.01    0.48    1.00
  YS02001748YS02001751 CONDUIT   1249.11     0  02:01      1.60    0.63    1.00
  YS02001751YS02001754 CONDUIT   1255.84     0  02:01      1.60    0.61    1.00
  YS02001754YS02001757 CONDUIT   1260.51     0  02:01      1.60    0.51    1.00
  YS02001757CaochengTiaoxuchi CONDUIT   3032.44     0  01:58      3.86    1.31    1.00
  YS02001759YS02001757 CONDUIT   1343.62     0  01:58      1.71    0.95    1.00
  YS02001762YS02001759 CONDUIT    688.64     0  01:50      0.88    0.79    1.00
  YS02001765YS02001762 CONDUIT    688.07     0  01:51      0.88    0.65    1.00
  YS02001767YS02001765 CONDUIT    687.81     0  01:51      0.88    0.87    1.00
  YS02001770YS02001767 CONDUIT    687.50     0  01:51      0.88    2.72    1.00
  YS02001774YS02001770 CONDUIT    852.10     0  02:07      1.08    0.54    1.00
  YS02001779YS02001774 CONDUIT    851.78     0  02:04      1.08    0.43    1.00
  YS02001783YS02001784 CONDUIT   1227.13     0  02:01      2.44    1.69    1.00
  YS02001784YS02001785 CONDUIT   1230.10     0  02:01      2.45    2.86    1.00
  YS02001786YS02001788 CONDUIT   1234.01     0  02:00      2.60    2.38    0.90
  YS02001788YS02001790 CONDUIT   1228.53     0  02:01      2.77    0.91    0.86
  YS02001790YS02001791 CONDUIT   1330.25     0  02:01      3.45    1.45    0.72
  YS02001791YS02001793 CONDUIT   1289.22     0  02:01      6.81    0.55    0.45
  YS02001793JiankangQianchi CONDUIT   1286.57     0  02:01      2.57    0.10    0.65
  YS02001882YS02001884 CONDUIT     98.61     0  02:05      0.20    0.11    1.00
  YS02001884YS02001887 CONDUIT     73.42     0  02:05      0.15    0.10    1.00
  YS02001887YS02001890 CONDUIT   1844.72     0  02:01      2.35    3.16    1.00
  YS02001890YS02001895 CONDUIT    521.54     0  02:00      0.66    0.24    1.00
  YS02001895YS02001898 CONDUIT    523.92     0  02:00      0.67    0.91    1.00
  YS02001898YS02001901 CONDUIT    518.15     0  01:58      0.66    0.33    1.00
  YS02001901YS02001904 CONDUIT    518.63     0  02:01      0.66    0.80    1.00
  YS02001904YS02001907 CONDUIT    525.09     0  02:05      0.67    0.18    1.00
  YS02001907YS02006553 CONDUIT   1287.04     0  02:01      1.43    1.51    1.00
  YS02001910YS02001907 CONDUIT   1993.02     0  02:09      2.54    1.12    1.00
  YS02001915YS02001910 CONDUIT   1993.14     0  02:07      2.54    0.99    1.00
  YS02001918YS02001915 CONDUIT   1090.55     0  02:02      1.39    0.60    1.00
  YS02001920YS02001918 CONDUIT   1089.20     0  02:02      1.39    1.05    1.00
  YS02001923YS02001920 CONDUIT   1086.21     0  02:02      1.38    0.49    1.00
  YS02001926YS02001923 CONDUIT   1085.14     0  02:02      1.38    1.55    1.00
  YS02001929YS02001926 CONDUIT   1083.81     0  02:02      1.38    0.51    1.00
  YS02006553YS02006556 CONDUIT   1284.56     0  02:01      1.64    1.10    1.00
  YS02006556YS02006558 CONDUIT   1273.34     0  02:01      1.62    1.01    1.00
  YS02006558YS02006561 CONDUIT   1225.10     0  02:01      4.33    2.71    1.00
  YS02006561YS02001783 CONDUIT   1226.66     0  02:01      2.44    0.64    1.00
  YS02163301YS02001633 CONDUIT   1138.87     0  02:04      1.45    1.07    1.00
  YS02163601YS02164001 CONDUIT   1285.04     0  01:43      1.64    1.14    1.00
  YS02164001YS02001641 CONDUIT   1285.17     0  01:44      1.64    1.75    1.00
  YSB1154YSB6556       CONDUIT    725.69     0  02:06      1.89    1.30    1.00
  YSB1171HS02004479    CONDUIT    388.06     0  01:46      0.77    0.26    1.00
  YSB1174YSB1171       CONDUIT    750.69     0  02:03      1.95    1.15    1.00
  YSB6556YSB1171       CONDUIT    639.84     0  02:07      1.66    0.66    1.00
  CC-R1                PUMP       683.00     0  00:00              1.00
  CC-R2                PUMP       683.00     0  00:00              1.00
  CC-S1                PUMP       200.00     0  00:00              1.00
  CC-S2                PUMP       200.00     0  00:00              1.00
  JK-R1                PUMP      1000.00     0  00:00              1.00
  JK-R2                PUMP      1000.00     0  00:00              1.00
  JK-S                 PUMP       300.00     0  00:00              1.00
  XR-1                 PUMP        95.00     0  00:00              1.00
  XR-2                 PUMP        95.00     0  00:00              1.00
  XR-3                 PUMP        95.00     0  00:00              1.00
  XR-4                 PUMP        95.00     0  00:00              1.00
  
  
  ***************************
  Flow Classification Summary
  ***************************
  
  -------------------------------------------------------------------------------------
                      Adjusted    ---------- Fraction of Time in Flow Class ---------- 
                       /Actual         Up    Down  Sub   Sup   Up    Down  Norm  Inlet 
  Conduit               Length    Dry  Dry   Dry   Crit  Crit  Crit  Crit  Ltd   Ctrl  
  -------------------------------------------------------------------------------------
  1                       1.00   0.00  0.00  0.00  0.00  1.00  0.00  0.00  0.39  0.00
  HS02004478WS02006287    1.00   0.09  0.00  0.00  0.67  0.24  0.00  0.00  0.57  0.00
  HS02004479HS02004480    1.00   0.04  0.00  0.00  0.96  0.00  0.00  0.00  0.10  0.00
  HS02004480HS02004478    1.00   0.08  0.00  0.00  0.60  0.00  0.00  0.32  0.00  0.00
  HS02004770HS02004777    1.00   0.00  0.08  0.00  0.92  0.00  0.00  0.00  0.01  0.00
  HS02004777HS02004785    1.00   0.00  0.00  0.00  1.00  0.00  0.00  0.00  0.10  0.00
  HS02004785HS02004788    1.00   0.00  0.00  0.00  1.00  0.00  0.00  0.00  0.00  0.00
  HS02004788HS02004792    1.00   0.00  0.00  0.00  0.99  0.01  0.00  0.00  0.83  0.00
  HS02004792HS02004799    1.00   0.00  0.00  0.00  0.99  0.01  0.00  0.00  0.78  0.00
  HS02004799HS02004480    1.00   0.00  0.04  0.00  0.91  0.00  0.05  0.00  0.00  0.00
  HS02004802HS02004478    1.00   0.08  0.00  0.00  0.92  0.00  0.00  0.00  0.02  0.00
  HS02004807HS02004802    1.00   0.08  0.00  0.00  0.91  0.00  0.00  0.01  0.00  0.00
  HS02004817HS02004807    1.00   0.00  0.08  0.00  0.92  0.00  0.00  0.00  0.01  0.00
  HS02004817HS02004824    1.00   0.00  0.00  0.00  1.00  0.00  0.00  0.00  0.76  0.00
  HS02004824HS02004830    1.00   0.00  0.00  0.00  1.00  0.00  0.00  0.00  0.01  0.00
  HS02004830HS02004837    1.00   0.00  0.00  0.00  1.00  0.00  0.00  0.00  0.80  0.00
  HS02004837HS02004842    1.00   0.00  0.00  0.00  1.00  0.00  0.00  0.00  0.11  0.00
  HS02004842HS02004848    1.00   0.00  0.08  0.00  0.92  0.00  0.00  0.00  0.52  0.00
  HS02004848HS02004852    1.00   0.08  0.00  0.00  0.92  0.00  0.00  0.00  0.65  0.00
  HS02004852HS02004856    1.00   0.08  0.00  0.00  0.92  0.00  0.00  0.00  0.62  0.00
  HS02004856HS02004862    1.00   0.00  0.09  0.00  0.91  0.00  0.00  0.00  0.67  0.00
  HS02004862HS02004870    1.00   0.00  0.00  0.00  1.00  0.00  0.00  0.00  0.02  0.00
  HS02004870HS02004876    1.00   0.00  0.00  0.00  0.99  0.01  0.00  0.00  0.78  0.00
  HS02004876HS02004881    1.00   0.02  0.00  0.00  0.78  0.20  0.00  0.00  0.00  0.00
  HS02004881HS02006253    1.00   0.03  0.02  0.00  0.54  0.02  0.00  0.39  0.18  0.00
  HS02004901HS02004770    1.00   0.08  0.00  0.00  0.92  0.00  0.00  0.00  0.00  0.00
  WS02001211WS02001212    1.00   0.00  0.03  0.00  0.97  0.00  0.00  0.00  0.00  0.00
  WS02001212WS02001213    1.00   0.03  0.00  0.00  0.57  0.00  0.40  0.00  0.00  0.00
  WS02001213WS02003059    1.00   0.00  0.00  0.00  0.99  0.00  0.00  0.00  0.00  0.00
  WS02003059WS02003060    1.00   0.00  0.00  0.00  1.00  0.00  0.00  0.00  0.03  0.00
  WS02003060WS02003069    1.00   0.00  0.00  0.00  0.98  0.02  0.00  0.00  0.57  0.00
  WS02003066WSF200        1.00   0.05  0.00  0.00  0.00  0.95  0.00  0.00  0.60  0.00
  WS02003067WS02003066    1.00   0.05  0.00  0.00  0.95  0.00  0.00  0.00  0.00  0.00
  WS02003069WS02003072    1.00   0.00  0.00  0.00  1.00  0.00  0.00  0.00  0.61  0.00
  WS02003072WS02003073    1.00   0.00  0.00  0.00  0.00  0.00  0.00  1.00  0.00  0.00
  WS02004138WS02004139    1.00   0.00  0.01  0.00  0.97  0.01  0.00  0.01  0.98  0.00
  WS02004139WS02001211    1.00   0.00  0.00  0.00  0.99  0.00  0.00  0.00  0.00  0.00
  WS02004401WS02004402    1.00   0.03  0.00  0.00  0.97  0.00  0.00  0.00  0.00  0.00
  WS02004402WS02004403    1.00   0.03  0.00  0.00  0.97  0.00  0.00  0.00  0.00  0.00
  WS02004403WS02004404    1.00   0.00  0.03  0.00  0.97  0.00  0.00  0.00  0.00  0.00
  WS02004404WS02004405    1.00   0.00  0.00  0.00  1.00  0.00  0.00  0.00  0.01  0.00
  WS02004405WS02004406    1.00   0.00  0.00  0.00  1.00  0.00  0.00  0.00  0.00  0.00
  WS02004406WS02004407    1.00   0.00  0.04  0.00  0.96  0.00  0.00  0.00  0.00  0.00
  WS02004407WS02004409    1.00   0.04  0.00  0.00  0.95  0.01  0.00  0.00  0.75  0.00
  WS02004409WS02004410    1.00   0.04  0.00  0.00  0.96  0.00  0.00  0.00  0.00  0.00
  WS02004410WS02004411    1.00   0.04  0.00  0.00  0.96  0.00  0.00  0.00  0.00  0.00
  WS02004411WS02004412    1.00   0.04  0.00  0.00  0.96  0.00  0.00  0.00  0.00  0.00
  WS02004412WS02004413    1.00   0.04  0.00  0.00  0.96  0.00  0.00  0.00  0.00  0.00
  WS02004413WS02003067    1.00   0.04  0.01  0.00  0.00  0.00  0.95  0.00  0.00  0.00
  WS02006109WS02006110    1.00   0.00  0.01  0.00  0.98  0.00  0.01  0.00  0.00  0.00
  WS02006110WS02006113    1.00   0.01  0.01  0.00  0.98  0.00  0.00  0.00  0.00  0.00
  WS02006111WS02006112    1.00   0.02  0.00  0.00  0.97  0.00  0.00  0.00  0.70  0.00
  WS02006112WS02006115    1.00   0.02  0.00  0.00  0.97  0.00  0.00  0.00  0.00  0.00
  WS02006113WS02006111    1.00   0.02  0.00  0.00  0.35  0.63  0.00  0.00  0.06  0.00
  WS02006115WS02006116    1.00   0.02  0.00  0.00  0.97  0.00  0.00  0.01  0.00  0.00
  WS02006116WS02004401    1.00   0.03  0.00  0.00  0.97  0.00  0.00  0.00  0.00  0.00
  WS02006228WS02006109    1.00   0.00  0.00  0.00  1.00  0.00  0.00  0.00  0.00  0.00
  WS02006229WS02006228    1.00   0.00  0.00  0.00  0.99  0.00  0.00  0.01  0.00  0.00
  WS02006230WS02006229    1.00   0.00  0.00  0.00  0.99  0.00  0.00  0.01  0.00  0.00
  WS02006231WS02006230    1.00   0.00  0.00  0.00  0.60  0.00  0.40  0.00  0.00  0.00
  WS02006232WS02006231    1.00   0.00  0.00  0.00  0.99  0.00  0.00  0.00  0.00  0.00
  WS02006234WS02006232    1.00   0.00  0.00  0.00  1.00  0.00  0.00  0.00  0.31  0.00
  WS02006235WS02006234    1.00   0.00  0.00  0.00  0.75  0.00  0.25  0.00  0.00  0.00
  WS02006238WS02006235    1.00   0.00  0.00  0.00  1.00  0.00  0.00  0.00  0.00  0.00
  WS02006239WS02006238    1.00   0.00  0.00  0.00  1.00  0.00  0.00  0.00  0.44  0.00
  WS02006240WS02006239    1.00   0.00  0.00  0.00  0.66  0.00  0.00  0.34  0.00  0.00
  WS02006242WS02006240    1.00   0.00  0.00  0.00  0.98  0.00  0.01  0.00  0.00  0.00
  WS02006243WS02006242    1.00   0.00  0.00  0.00  0.99  0.00  0.00  0.01  0.60  0.00
  WS02006245WS02006243    1.00   0.00  0.00  0.00  0.91  0.00  0.00  0.09  0.00  0.00
  WS02006247WS02006245    1.00   0.00  0.00  0.00  0.99  0.00  0.00  0.01  0.00  0.00
  WS02006248WS02006247    1.00   0.00  0.00  0.00  1.00  0.00  0.00  0.00  0.56  0.00
  WS02006249WS02006248    1.00   0.00  0.00  0.00  0.63  0.00  0.37  0.00  0.00  0.00
  WS02006251WS02006249    1.00   0.00  0.00  0.00  1.00  0.00  0.00  0.00  0.60  0.00
  WS02006252WS02006251    1.00   0.00  0.45  0.00  0.53  0.00  0.02  0.00  0.00  0.00
  WS02006253WS02006251    1.00   0.00  0.00  0.00  0.98  0.00  0.02  0.00  0.00  0.00
  WS02006256WS02006235    1.00   0.00  0.00  0.00  1.00  0.00  0.00  0.00  0.00  0.00
  WS02006280WS02006229    1.00   0.09  0.00  0.00  0.31  0.03  0.00  0.57  0.00  0.00
  WS02006284WS02006280    1.00   0.09  0.00  0.00  0.28  0.01  0.00  0.62  0.00  0.00
  WS02006287WS02006284    1.00   0.07  0.02  0.00  0.53  0.38  0.00  0.00  0.62  0.00
  WSF200WS02003060        1.00   0.00  0.05  0.00  0.39  0.56  0.00  0.00  0.58  0.00
  YS02001580YS02001583    1.00   0.18  0.39  0.00  0.43  0.00  0.00  0.00  0.61  0.00
  YS02001583YS02001586    1.00   0.24  0.23  0.00  0.53  0.00  0.00  0.00  0.62  0.00
  YS02001586YS02001590    1.00   0.08  0.00  0.00  0.69  0.02  0.00  0.21  0.33  0.00
  YS02001590YS02001593    1.00   0.08  0.00  0.00  0.29  0.00  0.62  0.00  0.00  0.00
  YS02001593YS02001596    1.00   0.08  0.00  0.00  0.32  0.01  0.00  0.58  0.02  0.00
  YS02001596YS02001600    1.00   0.08  0.00  0.00  0.40  0.02  0.00  0.50  0.03  0.00
  YS02001600YS02001601    1.00   0.08  0.00  0.00  0.92  0.00  0.00  0.00  0.56  0.00
  YS02001601YS02001602    1.00   0.08  0.00  0.00  0.92  0.00  0.00  0.00  0.00  0.00
  YS02001602YS02001605    1.00   0.08  0.00  0.00  0.92  0.00  0.00  0.00  0.00  0.00
  YS02001605YS02001607    1.00   0.08  0.00  0.00  0.92  0.00  0.00  0.00  0.00  0.00
  YS02001607YS02001610    1.00   0.08  0.00  0.00  0.92  0.00  0.00  0.00  0.01  0.00
  YS02001610YS02001613    1.00   0.08  0.00  0.00  0.92  0.00  0.00  0.00  0.00  0.00
  YS02001613YS02001616    1.00   0.08  0.00  0.00  0.92  0.00  0.00  0.00  0.00  0.00
  YS02001616YS02001619    1.00   0.08  0.00  0.00  0.92  0.00  0.00  0.00  0.00  0.00
  YS02001619YS02001622    1.00   0.08  0.00  0.00  0.92  0.00  0.00  0.00  0.26  0.00
  YS02001622YS02001625    1.00   0.08  0.00  0.00  0.92  0.00  0.00  0.00  0.02  0.00
  YS02001625YS02001629    1.00   0.08  0.02  0.00  0.38  0.00  0.52  0.00  0.00  0.00
  YS02001629YS02163301    1.00   0.09  0.00  0.00  0.91  0.00  0.00  0.00  0.00  0.00
  YS02001633YS02163601    1.00   0.00  0.01  0.00  0.99  0.00  0.00  0.00  0.14  0.00
  YS02001641YS02001644    1.00   0.00  0.00  0.00  1.00  0.00  0.00  0.00  0.00  0.00
  YS02001644YS02001647    1.00   0.00  0.09  0.00  0.91  0.00  0.00  0.00  0.00  0.00
  YS02001647YS02001649    1.00   0.00  0.09  0.00  0.66  0.24  0.00  0.00  0.55  0.00
  YS02001649YS02001757    1.00   0.00  0.00  0.00  0.74  0.26  0.00  0.00  0.38  0.00
  YS02001652YS02001649    1.00   0.00  0.00  0.00  0.98  0.02  0.00  0.00  0.68  0.00
  YS02001655YS02001652    1.00   0.00  0.00  0.00  0.43  0.01  0.00  0.56  0.04  0.00
  YS02001658YS02001655    1.00   0.00  0.09  0.00  0.72  0.19  0.00  0.00  0.59  0.00
  YS02001661YS02001658    1.00   0.08  0.00  0.00  0.52  0.39  0.00  0.00  0.61  0.00
  YS02001664YS02001661    1.00   0.08  0.00  0.00  0.81  0.11  0.00  0.00  0.79  0.00
  YS02001745YS02001748    1.00   0.00  0.00  0.00  0.29  0.00  0.00  0.70  0.04  0.00
  YS02001748YS02001751    1.00   0.00  0.00  0.00  0.85  0.15  0.00  0.00  0.70  0.00
  YS02001751YS02001754    1.00   0.00  0.00  0.00  0.40  0.01  0.00  0.59  0.03  0.00
  YS02001754YS02001757    1.00   0.00  0.00  0.00  1.00  0.00  0.00  0.00  0.73  0.00
  YS02001757CaochengTiaoxuchi    1.00   0.00  0.00  0.00  0.97  0.03  0.00  0.00  0.70  0.00
  YS02001759YS02001757    1.00   0.00  0.00  0.00  0.99  0.01  0.00  0.00  0.58  0.00
  YS02001762YS02001759    1.00   0.00  0.00  0.00  1.00  0.00  0.00  0.00  0.02  0.00
  YS02001765YS02001762    1.00   0.00  0.00  0.00  1.00  0.00  0.00  0.00  0.66  0.00
  YS02001767YS02001765    1.00   0.00  0.00  0.00  1.00  0.00  0.00  0.00  0.00  0.00
  YS02001770YS02001767    1.00   0.00  0.00  0.00  1.00  0.00  0.00  0.00  0.00  0.00
  YS02001774YS02001770    1.00   0.00  0.08  0.00  0.83  0.00  0.09  0.00  0.01  0.00
  YS02001779YS02001774    1.00   0.00  0.00  0.00  1.00  0.00  0.00  0.00  0.69  0.00
  YS02001783YS02001784    1.00   0.00  0.10  0.00  0.90  0.00  0.00  0.00  0.54  0.00
  YS02001784YS02001785    1.00   0.00  0.00  0.00  1.00  0.00  0.00  0.00  0.14  0.00
  YS02001786YS02001788    1.00   0.00  0.00  0.00  0.68  0.32  0.00  0.00  0.00  0.00
  YS02001788YS02001790    1.00   0.00  0.00  0.00  0.18  0.82  0.00  0.00  0.76  0.00
  YS02001790YS02001791    1.00   0.00  0.00  0.00  0.01  0.99  0.00  0.00  0.15  0.00
  YS02001791YS02001793    1.00   0.00  0.00  0.00  0.00  1.00  0.00  0.00  0.01  0.00
  YS02001793JiankangQianchi    1.00   0.00  0.00  0.00  0.90  0.10  0.00  0.00  0.96  0.00
  YS02001882YS02001884    1.00   0.09  0.00  0.00  0.91  0.00  0.00  0.00  0.00  0.00
  YS02001884YS02001887    1.00   0.05  0.02  0.00  0.92  0.00  0.00  0.00  0.00  0.00
  YS02001887YS02001890    1.00   0.00  0.00  0.00  0.97  0.00  0.03  0.00  0.00  0.00
  YS02001890YS02001895    1.00   0.00  0.09  0.00  0.91  0.00  0.00  0.00  0.00  0.00
  YS02001895YS02001898    1.00   0.09  0.00  0.00  0.90  0.00  0.01  0.00  0.00  0.00
  YS02001898YS02001901    1.00   0.09  0.00  0.00  0.91  0.00  0.00  0.00  0.00  0.00
  YS02001901YS02001904    1.00   0.09  0.00  0.00  0.91  0.00  0.00  0.00  0.00  0.00
  YS02001904YS02001907    1.00   0.00  0.09  0.00  0.91  0.00  0.00  0.00  0.00  0.00
  YS02001907YS02006553    1.00   0.00  0.02  0.00  0.97  0.00  0.00  0.00  0.00  0.00
  YS02001910YS02001907    1.00   0.00  0.00  0.00  0.97  0.00  0.00  0.03  0.11  0.00
  YS02001915YS02001910    1.00   0.00  0.00  0.00  0.97  0.03  0.00  0.00  0.12  0.00
  YS02001918YS02001915    1.00   0.00  0.00  0.00  0.97  0.02  0.00  0.00  0.67  0.00
  YS02001920YS02001918    1.00   0.00  0.00  0.00  1.00  0.00  0.00  0.00  0.00  0.00
  YS02001923YS02001920    1.00   0.00  0.00  0.00  1.00  0.00  0.00  0.00  0.86  0.00
  YS02001926YS02001923    1.00   0.00  0.06  0.00  0.16  0.00  0.78  0.00  0.00  0.00
  YS02001929YS02001926    1.00   0.00  0.08  0.00  0.92  0.00  0.00  0.00  0.77  0.00
  YS02006553YS02006556    1.00   0.01  0.00  0.00  0.99  0.00  0.00  0.00  0.03  0.00
  YS02006556YS02006558    1.00   0.00  0.00  0.00  1.00  0.00  0.00  0.00  0.00  0.00
  YS02006558YS02006561    1.00   0.10  0.00  0.00  0.15  0.75  0.00  0.00  0.15  0.00
  YS02006561YS02001783    1.00   0.10  0.00  0.00  0.22  0.68  0.00  0.00  0.63  0.00
  YS02163301YS02001633    1.00   0.00  0.09  0.00  0.91  0.00  0.00  0.00  0.00  0.00
  YS02163601YS02164001    1.00   0.00  0.06  0.00  0.94  0.00  0.00  0.00  0.00  0.00
  YS02164001YS02001641    1.00   0.01  0.06  0.00  0.94  0.00  0.00  0.00  0.05  0.00
  YSB1154YSB6556          1.00   0.08  0.00  0.00  0.92  0.00  0.00  0.00  0.01  0.00
  YSB1171HS02004479       1.00   0.04  0.00  0.00  0.95  0.00  0.00  0.01  0.09  0.00
  YSB1174YSB1171          1.00   0.05  0.02  0.00  0.93  0.00  0.00  0.00  0.00  0.00
  YSB6556YSB1171          1.00   0.04  0.04  0.00  0.92  0.00  0.00  0.00  0.00  0.00
  
  
  *************************
  Conduit Surcharge Summary
  *************************
  
  ----------------------------------------------------------------------------
                                                           Hours        Hours 
                         --------- Hours Full --------   Above Full   Capacity
  Conduit                Both Ends  Upstream  Dnstream   Normal Flow   Limited
  ----------------------------------------------------------------------------
  HS02004478WS02006287        1.00      1.00      1.24      0.01         0.01
  HS02004479HS02004480        1.24      1.24      1.27      0.01         0.01
  HS02004480HS02004478        1.15      1.23      1.15      2.05         1.15
  HS02004770HS02004777        1.10      1.10      1.11      0.15         0.11
  HS02004777HS02004785        1.04      1.04      1.11      0.01         0.01
  HS02004785HS02004788        1.02      1.04      1.02      1.75         0.78
  HS02004788HS02004792        1.02      1.02      1.19      0.01         0.01
  HS02004792HS02004799        1.19      1.19      1.38      0.01         0.01
  HS02004799HS02004480        1.23      1.23      1.38      1.51         0.01
  HS02004802HS02004478        1.16      1.16      1.26      0.43         0.01
  HS02004807HS02004802        1.22      1.22      1.25      0.65         0.66
  HS02004817HS02004807        1.22      1.22      1.77      0.01         0.01
  HS02004817HS02004824        1.02      1.02      1.77      0.01         0.01
  HS02004824HS02004830        0.99      0.99      1.02      0.01         0.01
  HS02004830HS02004837        0.94      0.94      0.99      0.01         0.01
  HS02004837HS02004842        0.94      0.94      1.12      0.01         0.01
  HS02004842HS02004848        0.89      0.89      1.12      0.01         0.01
  HS02004848HS02004852        0.89      0.89      0.93      0.02         0.01
  HS02004852HS02004856        0.93      0.93      0.95      0.01         0.01
  HS02004856HS02004862        0.91      0.91      0.96      0.01         0.01
  HS02004862HS02004870        0.96      0.96      0.99      0.35         0.36
  HS02004870HS02004876        0.99      0.99      1.09      0.01         0.01
  HS02004876HS02004881        1.06      1.09      1.06      1.92         1.06
  HS02004881HS02006253        1.06      1.06      2.52      0.01         0.01
  HS02004901HS02004770        1.10      1.10      1.10      0.38         0.01
  WS02003072WS02003073        0.01      0.01      0.01      2.86         0.01
  WS02004401WS02004402        1.94      1.94      1.97      1.80         1.80
  WS02004402WS02004403        1.97      1.97      1.98      1.93         1.93
  WS02004403WS02004404        1.98      1.98      2.34      0.14         0.14
  WS02004404WS02004405        2.13      2.34      2.13      3.15         2.13
  WS02004405WS02004406        2.08      2.13      2.08      2.58         2.08
  WS02004406WS02004407        0.21      0.21      2.08      0.01         0.01
  WS02004407WS02004409        0.21      0.21      1.59      0.01         0.01
  WS02004409WS02004410        1.58      1.59      1.58      1.84         1.58
  WS02004410WS02004411        1.53      1.58      1.53      1.89         1.53
  WS02004411WS02004412        1.44      1.53      1.44      1.93         1.44
  WS02004412WS02004413        1.44      1.44      1.75      0.01         0.01
  WS02004413WS02003067        0.01      0.01      1.75      0.01         0.01
  WS02006109WS02006110        2.56      2.56      2.74      2.57         0.01
  WS02006110WS02006113        1.73      1.73      2.73      0.46         0.01
  WS02006111WS02006112        1.71      1.71      2.82      0.01         0.01
  WS02006112WS02006115        1.85      1.85      2.63      0.01         0.01
  WS02006113WS02006111        1.72      1.73      1.72      1.81         1.66
  WS02006115WS02006116        1.86      1.86      1.86      1.83         1.82
  WS02006116WS02004401        1.93      1.93      1.94      1.90         1.89
  WS02006228WS02006109        2.72      2.74      2.72      2.97         2.72
  WS02006229WS02006228        2.72      2.72      2.72      2.84         2.72
  WS02006230WS02006229        2.75      2.76      2.76      3.30         1.07
  WS02006231WS02006230        2.42      2.43      2.55      3.11         1.62
  WS02006232WS02006231        2.54      2.54      2.64      0.19         0.27
  WS02006234WS02006232        2.60      2.60      2.64      0.18         0.18
  WS02006235WS02006234        2.59      2.59      2.61      2.87         1.60
  WS02006238WS02006235        2.61      2.61      2.62      0.01         0.71
  WS02006239WS02006238        2.61      2.62      2.62      2.20         0.62
  WS02006240WS02006239        2.59      2.59      2.59      2.16         0.58
  WS02006242WS02006240        2.59      2.59      2.61      2.43         1.56
  WS02006243WS02006242        2.57      2.57      2.60      0.01         0.01
  WS02006245WS02006243        2.56      2.56      2.57      0.62         0.53
  WS02006247WS02006245        2.55      2.56      2.56      2.65         0.90
  WS02006248WS02006247        2.55      2.55      2.56      0.01         0.01
  WS02006249WS02006248        2.54      2.54      2.55      0.91         0.01
  WS02006251WS02006249        2.54      2.54      2.55      2.54         2.44
  WS02006252WS02006251        2.64      2.65      2.66      1.96         0.32
  WS02006253WS02006251        2.54      2.54      2.54      1.43         0.01
  WS02006256WS02006235        3.04      3.04      4.86      0.50         0.01
  WS02006280WS02006229        1.45      1.45      1.58      0.01         0.01
  WS02006284WS02006280        1.28      1.28      1.42      0.01         0.01
  WS02006287WS02006284        1.13      1.13      1.29      0.71         0.71
  YS02001580YS02001583        1.23      1.23      1.32      0.01         0.01
  YS02001583YS02001586        1.23      1.23      1.41      0.01         0.01
  YS02001586YS02001590        1.42      1.42      1.48      0.01         0.01
  YS02001590YS02001593        1.48      1.48      1.50      1.47         0.01
  YS02001593YS02001596        1.49      1.49      1.59      0.01         0.01
  YS02001596YS02001600        1.64      1.64      1.72      0.01         0.01
  YS02001600YS02001601        1.77      1.77      1.99      0.01         0.01
  YS02001601YS02001602        1.92      1.92      2.02      1.70         0.01
  YS02001602YS02001605        1.88      1.88      1.92      2.64         0.01
  YS02001605YS02001607        1.85      1.88      1.86      1.90         1.79
  YS02001607YS02001610        1.49      1.49      1.51      0.01         0.01
  YS02001610YS02001613        1.48      1.48      1.51      0.01         0.01
  YS02001613YS02001616        1.45      1.45      1.48      0.01         0.01
  YS02001616YS02001619        1.44      1.44      1.45      0.31         0.24
  YS02001619YS02001622        1.44      1.44      1.44      1.42         1.25
  YS02001622YS02001625        1.44      1.44      1.60      0.01         0.01
  YS02001625YS02001629        1.39      1.39      1.60      0.01         0.01
  YS02001629YS02163301        1.61      1.61      1.63      0.26         0.11
  YS02001633YS02163601        1.66      1.66      1.70      0.15         0.16
  YS02001641YS02001644        1.59      1.62      1.59      2.06         1.53
  YS02001644YS02001647        1.39      1.39      1.59      0.01         0.01
  YS02001647YS02001649        1.39      1.39      1.52      0.01         0.01
  YS02001649YS02001757        1.51      1.52      1.59      0.11         0.06
  YS02001652YS02001649        1.37      1.37      1.52      0.01         0.01
  YS02001655YS02001652        1.24      1.24      1.35      0.01         0.01
  YS02001658YS02001655        0.78      0.78      1.24      0.01         0.01
  YS02001661YS02001658        0.30      0.30      0.78      0.01         0.01
  YS02001664YS02001661        0.13      0.13      0.38      0.01         0.01
  YS02001745YS02001748        0.12      0.12      0.62      0.01         0.01
  YS02001748YS02001751        0.75      0.75      1.13      0.01         0.01
  YS02001751YS02001754        1.13      1.13      1.30      0.01         0.01
  YS02001754YS02001757        1.33      1.33      1.59      0.01         0.01
  YS02001757CaochengTiaoxuchi        1.59      1.59      2.08      0.57         0.57
  YS02001759YS02001757        1.51      1.51      1.59      0.01         0.01
  YS02001762YS02001759        1.48      1.48      1.51      0.01         0.01
  YS02001765YS02001762        1.45      1.45      1.48      0.01         0.01
  YS02001767YS02001765        1.42      1.42      1.45      0.01         0.02
  YS02001770YS02001767        1.42      1.42      1.42      0.94         0.79
  YS02001774YS02001770        1.40      1.40      1.47      0.01         0.01
  YS02001779YS02001774        1.30      1.30      1.47      0.01         0.01
  YS02001783YS02001784        0.99      1.02      0.99      1.25         0.99
  YS02001784YS02001785        0.83      0.99      0.83      1.57         0.83
  YS02001786YS02001788        0.01      0.83      0.01      1.43         0.01
  YS02001790YS02001791        0.01      0.01      0.01      0.97         0.01
  YS02001793JiankangQianchi        0.01      0.01      7.70      0.01         0.01
  YS02001882YS02001884        0.94      0.94      0.95      0.01         0.01
  YS02001884YS02001887        0.99      0.99      1.01      0.01         0.01
  YS02001887YS02001890        1.03      1.03      1.04      0.35         0.01
  YS02001890YS02001895        0.92      0.92      1.07      0.01         0.01
  YS02001895YS02001898        0.91      0.91      0.92      0.01         0.01
  YS02001898YS02001901        0.93      0.93      0.98      0.01         0.01
  YS02001901YS02001904        0.97      0.97      0.98      0.01         0.01
  YS02001904YS02001907        0.97      0.97      1.39      0.01         0.01
  YS02001907YS02006553        1.58      1.58      1.63      0.09         0.09
  YS02001910YS02001907        1.07      1.07      1.35      0.24         0.24
  YS02001915YS02001910        0.94      0.94      1.07      0.01         0.03
  YS02001918YS02001915        0.82      0.82      0.94      0.01         0.01
  YS02001920YS02001918        0.82      0.82      0.84      0.06         0.01
  YS02001923YS02001920        0.76      0.76      0.84      0.01         0.01
  YS02001926YS02001923        0.38      0.38      0.41      0.20         0.01
  YS02001929YS02001926        0.26      0.26      0.41      0.01         0.01
  YS02006553YS02006556        1.20      1.20      1.38      0.04         0.04
  YS02006556YS02006558        1.29      1.29      1.43      0.02         0.01
  YS02006558YS02006561        0.86      1.18      0.86      1.53         0.86
  YS02006561YS02001783        0.78      0.78      1.02      0.01         0.01
  YS02163301YS02001633        1.63      1.63      1.68      0.09         0.01
  YS02163601YS02164001        1.61      1.61      1.70      0.11         0.01
  YS02164001YS02001641        1.61      1.61      1.62      0.85         0.77
  YSB1154YSB6556              1.32      1.32      1.55      0.21         0.01
  YSB1171HS02004479           1.18      1.18      1.55      0.01         0.01
  YSB1174YSB1171              1.43      1.43      1.72      0.09         0.09
  YSB6556YSB1171              1.32      1.32      1.81      0.01         0.01
  
  
  ***************
  Pumping Summary
  ***************
  
  ---------------------------------------------------------------------------------------------------------
                                                  Min       Avg       Max     Total     Power    % Time Off
                        Percent   Number of      Flow      Flow      Flow    Volume     Usage    Pump Curve
  Pump                 Utilized   Start-Ups       LPS       LPS       LPS  10^6 ltr     Kw-hr    Low   High
  ---------------------------------------------------------------------------------------------------------
  CC-R1                   29.67           2      0.00    683.00    683.00     5.837    112.91    0.0   45.9
  CC-R2                   28.55           2      0.00    683.00    683.00     5.616    108.83    0.0   47.8
  CC-S1                   31.99           2      0.00    200.00    200.00     1.843     11.33    0.0   27.8
  CC-S2                   30.74           2      0.00    200.00    200.00     1.770     10.82    0.0   28.9
  JK-R1                   13.66           7      0.00   1000.00   1000.00     3.934     37.34    0.0    0.0
  JK-R2                    0.16           1      0.00   1000.00   1000.00     0.047      0.36    0.0    0.0
  JK-S                    24.34           3      0.00    300.00    300.00     2.103     33.72    0.0    0.0
  XR-1                    97.91           2      0.00     95.00     95.00     2.679      9.62    0.0    0.0
  XR-2                    93.94           2      0.00     95.00     95.00     2.570      8.78    0.0    0.0
  XR-3                     0.00           1      0.00     95.00     95.00     0.000      0.00    0.0    0.0
  XR-4                     0.00           1      0.00     95.00     95.00     0.000      0.00    0.0    0.0
  

  Analysis begun on:  Tue Jul 11 11:23:15 2023
  Analysis ended on:  Tue Jul 11 11:23:20 2023
  Total elapsed time: 00:00:05