
  OWA STORM WATER MANAGEMENT MODEL - VERSION v5.1.14 (OWA 2022-07-31)
  --------------------------------------------------------------

  WARNING 04: minimum elevation drop used for Conduit WS02004404WS02004405
  WARNING 03: negative offset ignored for Link YS02001904YS02001907
  
  *********************************************************
  NOTE: The summary statistics displayed in this report are
  based on results found at every computational time step,  
  not just on results from each reporting time step.
  *********************************************************
  
  ****************
  Analysis Options
  ****************
  Flow Units ............... LPS
  Process Models:
    Rainfall/Runoff ........ YES
    RDII ................... NO
    Snowmelt ............... NO
    Groundwater ............ NO
    Flow Routing ........... YES
    Ponding Allowed ........ NO
    Water Quality .......... NO
  Infiltration Method ...... HORTON
  Flow Routing Method ...... DYNWAVE
  Surcharge Method ......... EXTRAN
  Starting Date ............ 08/28/2015 08:00:00
  Ending Date .............. 08/28/2015 16:00:00
  Antecedent Dry Days ...... 8.0
  Report Time Step ......... 00:01:00
  Wet Time Step ............ 00:01:00
  Dry Time Step ............ 00:01:00
  Routing Time Step ........ 30.00 sec
  Variable Time Step ....... YES
  Maximum Trials ........... 8
  Number of Threads ........ 4
  Head Tolerance ........... 0.001500 m
  
  
  **************************        Volume         Depth
  Runoff Quantity Continuity     hectare-m            mm
  **************************     ---------       -------
  Total Precipitation ......         5.410        89.304
  Evaporation Loss .........         0.000         0.000
  Infiltration Loss ........         0.251         4.137
  Surface Runoff ...........         5.100        84.181
  Final Storage ............         0.061         1.007
  Continuity Error (%) .....        -0.024
  
  
  **************************        Volume        Volume
  Flow Routing Continuity        hectare-m      10^6 ltr
  **************************     ---------     ---------
  Dry Weather Inflow .......         0.630         6.296
  Wet Weather Inflow .......         5.100        51.002
  Groundwater Inflow .......         0.000         0.000
  RDII Inflow ..............         0.000         0.000
  External Inflow ..........         0.105         1.045
  External Outflow .........         2.739        27.387
  Flooding Loss ............         3.034        30.345
  Evaporation Loss .........         0.000         0.000
  Exfiltration Loss ........         0.000         0.000
  Initial Stored Volume ....         0.303         3.031
  Final Stored Volume ......         0.372         3.722
  Continuity Error (%) .....        -0.130
  
  
  *************************
  Highest Continuity Errors
  *************************
  Node YS02001583 (-13.10%)
  Node YS02001884 (4.94%)
  Node HS02004842 (1.17%)
  
  
  ***************************
  Time-Step Critical Elements
  ***************************
  Link WS02006280WS02006229 (56.89%)
  Link WS02006238WS02006235 (8.69%)
  Link YS02001791YS02001793 (6.42%)
  Link WS02003066WSF200 (4.95%)
  Link WS02004404WS02004405 (4.16%)
  
  
  ********************************
  Highest Flow Instability Indexes
  ********************************
  Link WS02006238WS02006235 (31)
  Link WS02006113WS02006111 (28)
  Link WS02004404WS02004405 (26)
  Link WS02006256WS02006235 (26)
  Link WS02006229WS02006228 (26)
  
  
  *************************
  Routing Time Step Summary
  *************************
  Minimum Time Step           :     0.00 sec
  Average Time Step           :     2.70 sec
  Maximum Time Step           :     6.46 sec
  Percent in Steady State     :     0.00
  Average Iterations per Step :     3.66
  Percent Not Converging      :    14.23
  
  
  ***************************
  Subcatchment Runoff Summary
  ***************************
  
  ------------------------------------------------------------------------------------------------------------------------------
                            Total      Total      Total      Total     Imperv       Perv      Total       Total     Peak  Runoff
                           Precip      Runon       Evap      Infil     Runoff     Runoff     Runoff      Runoff   Runoff   Coeff
  Subcatchment                 mm         mm         mm         mm         mm         mm         mm    10^6 ltr      LPS
  ------------------------------------------------------------------------------------------------------------------------------
  sub0                      99.00       0.00       0.00       1.04      90.83       5.89      96.73        0.08    55.64   0.977
  sub1                      99.00       0.00       0.00       1.79      86.87       9.10      95.97        0.64   403.89   0.969
  sub10                     99.00       0.00       0.00       1.26      89.81       6.66      96.47        1.06   682.75   0.974
  sub11                     99.00       0.00       0.00       1.24      89.83       6.69      96.51        1.12   746.19   0.975
  sub12                     99.00       0.00       0.00       2.01      84.97      10.86      95.83        0.84   585.41   0.968
  sub14                     99.00       0.00       0.00       1.41      88.84       7.50      96.34        0.92   600.25   0.973
  sub15                     99.00       0.00       0.00       5.63      68.34      24.08      92.41        1.59   979.99   0.933
  sub16                     99.00       0.00       0.00       5.79      65.43      26.89      92.32        0.97   640.29   0.932
  sub17                     99.00       0.00       0.00       5.65      66.40      26.04      92.44        0.79   521.50   0.934
  sub2                      99.00       0.00       0.00       8.09      61.47      28.54      90.01        0.84   451.17   0.909
  sub22                     99.00       0.00       0.00       8.55      55.65      34.02      89.68        5.66  3376.75   0.906
  sub23                     99.00       0.00       0.00       6.95      61.52      29.68      91.20        4.35  2721.74   0.921
  sub3                      99.00       0.00       0.00       8.83      61.43      27.80      89.23        2.01   993.63   0.901
  sub4                      99.00       0.00       0.00       2.02      86.69       8.87      95.56        1.99  1050.27   0.965
  sub5                      99.00       0.00       0.00       1.10      90.77       5.83      96.61        1.09   693.03   0.976
  sub60                     81.29       0.00       0.00       1.84      70.34       7.91      78.26        1.03   669.49   0.963
  sub61                     81.29       0.00       0.00       2.67      66.35      11.16      77.51        1.42   924.88   0.953
  sub62                     81.29       0.00       0.00       1.23      73.51       5.28      78.79        2.16  1299.42   0.969
  sub63                     81.29       0.00       0.00       4.89      56.75      18.69      75.44        1.71  1020.95   0.928
  sub64                     81.29       0.00       0.00       2.48      67.90       9.72      77.62        1.86  1048.70   0.955
  sub65                     81.29       0.00       0.00       2.14      69.48       8.43      77.90        2.14  1169.36   0.958
  sub66                     81.29       0.00       0.00       6.00      56.65      17.58      74.23        3.46  1504.37   0.913
  sub67                     81.29       0.00       0.00       1.19      73.55       5.32      78.88        1.47  1019.28   0.970
  sub68                     81.29       0.00       0.00       2.21      68.73       9.18      77.91        2.14  1334.31   0.958
  sub69                     81.29       0.00       0.00       1.96      68.99      10.23      79.23        2.93  1562.26   0.975
  sub7                      99.00       0.00       0.00       1.39      88.86       7.52      96.38        0.32   219.44   0.974
  sub70                     81.29       0.00       0.00       6.47      53.49      21.17      74.66        2.16   846.31   0.918
  sub71                     81.29       0.00       0.00       1.26      73.47       5.25      78.72        2.06  1136.61   0.968
  sub72                     81.29       0.00       0.00       1.12      74.20       4.57      78.78        1.08   545.10   0.969
  sub8                      99.00       0.00       0.00       1.41      88.85       7.51      96.35        0.62   406.71   0.973
  sub9                      99.00       0.00       0.00       1.41      88.84       7.50      96.34        0.46   304.58   0.973
  
  
  ******************
  Node Depth Summary
  ******************
  
  ---------------------------------------------------------------------------------
                                 Average  Maximum  Maximum  Time of Max    Reported
                                   Depth    Depth      HGL   Occurrence   Max Depth
  Node                 Type       Meters   Meters   Meters  days hr:min      Meters
  ---------------------------------------------------------------------------------
  HS02004478           JUNCTION     0.35     1.74    10.97     0  02:07        1.74
  HS02004479           JUNCTION     0.43     1.82    11.03     0  02:07        1.82
  HS02004480           JUNCTION     0.40     1.81    11.05     0  02:07        1.81
  HS02004770           JUNCTION     0.38     1.42    11.25     0  02:03        1.42
  HS02004777           JUNCTION     0.41     1.48    11.28     0  02:03        1.48
  HS02004785           JUNCTION     0.30     1.49    11.39     0  02:35        1.49
  HS02004788           JUNCTION     0.26     1.42    11.32     0  02:03        1.42
  HS02004792           JUNCTION     0.34     1.60    11.12     0  02:06        1.60
  HS02004799           JUNCTION     0.47     1.76    10.97     0  02:07        1.76
  HS02004802           JUNCTION     0.45     1.92    11.05     0  02:07        1.92
  HS02004807           JUNCTION     0.43     1.92    11.09     0  02:07        1.92
  HS02004817           JUNCTION     0.74     2.44    11.29     0  02:07        2.44
  HS02004824           JUNCTION     0.30     2.01    11.41     0  02:07        2.01
  HS02004830           JUNCTION     0.30     2.03    11.50     0  02:07        2.03
  HS02004837           JUNCTION     0.26     2.04    11.62     0  02:07        2.04
  HS02004842           JUNCTION     0.56     2.22    11.49     0  02:07        2.22
  HS02004848           JUNCTION     0.24     2.07    11.67     0  02:07        2.07
  HS02004852           JUNCTION     0.25     2.12    11.63     0  02:06        2.12
  HS02004856           JUNCTION     0.31     2.07    11.50     0  02:07        2.07
  HS02004862           JUNCTION     0.27     2.00    11.38     0  02:07        2.00
  HS02004870           JUNCTION     0.26     2.10    11.39     0  02:07        2.10
  HS02004876           JUNCTION     0.32     2.26    11.29     0  02:07        2.26
  HS02004881           JUNCTION     0.24     2.06    11.09     0  02:07        2.06
  HS02004901           JUNCTION     0.39     1.42    11.24     0  02:03        1.42
  WS02001211           JUNCTION     0.65     0.83     5.67     0  02:27        0.83
  WS02001212           JUNCTION     0.40     0.59     5.66     0  02:27        0.59
  WS02001213           JUNCTION     0.62     0.89     5.65     0  02:27        0.89
  WS02003059           JUNCTION     0.68     0.96     5.65     0  02:26        0.96
  WS02003060           JUNCTION     0.41     0.71     5.64     0  02:26        0.71
  WS02003066           JUNCTION     0.25     0.47     6.03     0  02:25        0.47
  WS02003067           JUNCTION     0.57     0.90     6.22     0  02:24        0.90
  WS02003069           JUNCTION     0.46     0.80     5.39     0  02:26        0.80
  WS02003072           JUNCTION     0.51     0.83     5.20     0  02:26        0.83
  WS02003073           JUNCTION     0.31     0.53     4.59     0  02:27        0.53
  WS02004138           JUNCTION     0.13     0.14     7.39     0  00:29        0.14
  WS02004139           JUNCTION     0.59     0.77     5.68     0  02:27        0.77
  WS02004401           JUNCTION     0.87     2.09     8.09     0  02:24        2.08
  WS02004402           JUNCTION     0.87     2.02     7.98     0  02:24        2.01
  WS02004403           JUNCTION     0.87     1.93     7.86     0  02:25        1.92
  WS02004404           JUNCTION     0.93     1.93     7.78     0  02:24        1.92
  WS02004405           JUNCTION     0.91     1.88     7.73     0  02:24        1.87
  WS02004406           JUNCTION     0.89     1.74     7.57     0  02:24        1.74
  WS02004407           JUNCTION     0.32     1.07     7.38     0  02:25        1.07
  WS02004409           JUNCTION     0.60     1.62     7.39     0  02:35        1.62
  WS02004410           JUNCTION     0.60     1.55     7.27     0  02:35        1.55
  WS02004411           JUNCTION     0.60     1.27     6.95     0  02:24        1.26
  WS02004412           JUNCTION     0.59     1.15     6.79     0  02:25        1.15
  WS02004413           JUNCTION     0.72     1.17     6.64     0  02:25        1.17
  WS02006109           JUNCTION     1.15     2.64     9.26     0  02:04        2.64
  WS02006110           JUNCTION     1.06     2.76     9.34     0  02:35        2.76
  WS02006111           JUNCTION     0.55     1.99     8.69     0  02:24        1.99
  WS02006112           JUNCTION     1.11     2.68     8.56     0  02:24        2.68
  WS02006113           JUNCTION     0.63     1.98     8.87     0  02:24        1.98
  WS02006115           JUNCTION     0.81     2.23     8.37     0  02:24        2.23
  WS02006116           JUNCTION     0.87     2.20     8.24     0  02:24        2.19
  WS02006228           JUNCTION     1.23     3.03     9.68     0  02:07        3.03
  WS02006229           JUNCTION     1.26     3.25     9.94     0  02:07        3.25
  WS02006230           JUNCTION     1.14     2.65     9.39     0  01:56        2.65
  WS02006231           JUNCTION     0.84     2.24     9.36     0  02:06        2.24
  WS02006232           JUNCTION     0.92     2.18     9.22     0  01:56        2.18
  WS02006234           JUNCTION     0.79     1.96     9.12     0  01:53        1.96
  WS02006235           JUNCTION     0.79     1.96     9.13     0  02:35        1.93
  WS02006238           JUNCTION     0.81     2.15     9.29     0  02:35        2.15
  WS02006239           JUNCTION     0.74     2.03     9.24     0  02:35        2.03
  WS02006240           JUNCTION     0.68     2.10     9.39     0  01:34        1.70
  WS02006242           JUNCTION     0.70     1.55     8.82     0  01:34        1.55
  WS02006243           JUNCTION     0.59     1.48     8.90     0  01:36        1.43
  WS02006245           JUNCTION     0.56     1.37     8.86     0  02:35        1.34
  WS02006247           JUNCTION     0.55     1.47     8.97     0  01:36        1.47
  WS02006248           JUNCTION     0.50     1.10     8.69     0  01:36        1.10
  WS02006249           JUNCTION     0.51     1.09     8.69     0  01:35        1.09
  WS02006251           JUNCTION     0.70     2.21     9.88     0  01:36        2.21
  WS02006252           JUNCTION     0.47     1.50     9.74     0  00:00        1.50
  WS02006253           JUNCTION     0.83     3.24    10.88     0  02:24        3.24
  WS02006256           JUNCTION     1.17     2.35     9.28     0  00:00        2.35
  WS02006280           JUNCTION     0.44     1.79    10.07     0  02:35        1.79
  WS02006284           JUNCTION     0.69     2.08    10.48     0  02:35        2.08
  WS02006287           JUNCTION     0.43     1.89    10.84     0  02:07        1.89
  WSF200               JUNCTION     0.25     0.54     5.78     0  02:25        0.54
  YS02001580           JUNCTION     0.15     1.05     9.59     0  01:33        1.05
  YS02001583           JUNCTION     0.19     1.14     9.64     0  01:33        0.98
  YS02001586           JUNCTION     0.29     1.13     9.30     0  01:33        1.13
  YS02001590           JUNCTION     0.40     1.40     9.26     0  01:32        1.40
  YS02001593           JUNCTION     0.33     1.36     9.22     0  01:33        1.31
  YS02001596           JUNCTION     0.45     1.70     9.12     0  01:33        1.69
  YS02001600           JUNCTION     0.53     1.87     9.00     0  01:33        1.86
  YS02001601           JUNCTION     0.73     2.06     8.90     0  01:32        2.06
  YS02001602           JUNCTION     0.63     1.87     8.77     0  01:33        1.87
  YS02001605           JUNCTION     0.59     1.78     8.68     0  01:33        1.78
  YS02001607           JUNCTION     0.56     1.66     8.51     0  02:11        1.66
  YS02001610           JUNCTION     0.61     1.68     8.48     0  01:33        1.68
  YS02001613           JUNCTION     0.57     1.68     8.52     0  01:33        1.67
  YS02001616           JUNCTION     0.50     1.61     8.52     0  01:33        1.61
  YS02001619           JUNCTION     0.48     1.61     8.54     0  01:33        1.61
  YS02001622           JUNCTION     0.47     1.62     8.52     0  01:33        1.58
  YS02001625           JUNCTION     0.72     1.78     8.38     0  01:34        1.78
  YS02001629           JUNCTION     0.61     1.85     8.40     0  01:34        1.85
  YS02001633           JUNCTION     0.69     2.06     8.52     0  01:36        2.00
  YS02001641           JUNCTION     0.66     1.97     8.41     0  01:36        1.94
  YS02001644           JUNCTION     0.65     1.92     8.35     0  01:35        1.92
  YS02001647           JUNCTION     0.44     1.84     8.45     0  01:36        1.78
  YS02001649           JUNCTION     0.50     2.05     8.44     0  01:36        2.05
  YS02001652           JUNCTION     0.39     2.16     8.76     0  01:36        1.94
  YS02001655           JUNCTION     0.31     2.20     9.05     0  01:36        1.79
  YS02001658           JUNCTION     0.22     2.30     9.44     0  01:36        1.60
  YS02001661           JUNCTION     0.21     2.22     9.63     0  01:37        1.43
  YS02001664           JUNCTION     0.08     1.82     9.75     0  01:37        0.94
  YS02001745           JUNCTION     0.11     2.35     9.87     0  01:36        0.89
  YS02001748           JUNCTION     0.21     2.27     9.35     0  01:36        1.30
  YS02001751           JUNCTION     0.27     2.20     9.08     0  01:36        1.47
  YS02001754           JUNCTION     0.35     2.20     8.81     0  01:35        1.73
  YS02001757           JUNCTION     0.52     2.21     8.47     0  01:36        2.06
  YS02001759           JUNCTION     0.47     2.21     8.57     0  01:36        2.07
  YS02001762           JUNCTION     0.46     2.15     8.55     0  01:36        2.03
  YS02001765           JUNCTION     0.44     2.10     8.55     0  01:36        1.99
  YS02001767           JUNCTION     0.43     2.03     8.52     0  01:35        1.96
  YS02001770           JUNCTION     0.44     1.95     8.44     0  01:35        1.95
  YS02001774           JUNCTION     0.51     2.01     8.43     0  01:35        1.99
  YS02001779           JUNCTION     0.33     1.68     8.37     0  01:35        1.68
  YS02001783           JUNCTION     0.32     1.34     7.48     0  01:35        1.23
  YS02001784           JUNCTION     0.33     1.22     7.29     0  01:35        1.12
  YS02001786           JUNCTION     0.27     1.03     7.06     0  01:34        0.87
  YS02001788           JUNCTION     0.19     0.63     6.60     0  01:36        0.62
  YS02001790           JUNCTION     0.23     0.73     6.37     0  01:39        0.72
  YS02001791           JUNCTION     0.14     0.44     5.91     0  01:36        0.44
  YS02001793           JUNCTION     0.07     0.28     5.11     0  01:57        0.27
  YS02001882           JUNCTION     0.40     1.83     8.55     0  01:34        1.67
  YS02001884           JUNCTION     0.49     1.90     8.52     0  01:34        1.76
  YS02001887           JUNCTION     0.57     1.90     8.44     0  01:34        1.85
  YS02001890           JUNCTION     0.60     1.81     8.32     0  01:34        1.81
  YS02001895           JUNCTION     0.37     1.75     8.50     0  01:34        1.57
  YS02001898           JUNCTION     0.38     1.77     8.51     0  01:34        1.56
  YS02001901           JUNCTION     0.49     1.87     8.48     0  01:34        1.67
  YS02001904           JUNCTION     0.47     1.84     8.47     0  01:34        1.65
  YS02001907           JUNCTION     0.78     1.96     8.25     0  01:34        1.96
  YS02001910           JUNCTION     0.59     2.01     8.52     0  01:34        1.96
  YS02001915           JUNCTION     0.41     2.00     8.72     0  01:34        1.92
  YS02001918           JUNCTION     0.25     1.81     8.88     0  01:35        1.81
  YS02001920           JUNCTION     0.33     2.14     9.15     0  01:35        2.09
  YS02001923           JUNCTION     0.20     2.03     9.29     0  01:35        2.03
  YS02001926           JUNCTION     0.22     1.90     9.35     0  01:35        1.90
  YS02001929           JUNCTION     0.14     1.78     9.47     0  01:35        1.68
  YS02006553           JUNCTION     0.79     2.00     8.29     0  01:35        1.98
  YS02006556           JUNCTION     0.76     2.02     8.33     0  01:35        1.98
  YS02006558           JUNCTION     0.80     2.08     8.34     0  01:35        2.04
  YS02006561           JUNCTION     0.20     1.02     7.68     0  01:35        0.90
  YS02163301           JUNCTION     0.63     1.94     8.46     0  01:36        1.91
  YS02163601           JUNCTION     0.72     2.08     8.48     0  01:36        2.02
  YS02164001           JUNCTION     0.65     1.99     8.45     0  01:36        1.95
  YSB1154              JUNCTION     0.58     2.10    11.16     0  02:24        2.10
  YSB1171              JUNCTION     0.71     1.95    10.85     0  02:07        1.95
  YSB1174              JUNCTION     0.52     1.95    11.06     0  02:35        1.93
  YSB6556              JUNCTION     0.47     1.80    10.97     0  02:22        1.80
  CC-1                 OUTFALL      0.00     0.00     0.00     0  00:00        0.00
  CC-2                 OUTFALL      0.00     0.00     0.00     0  00:00        0.00
  JK-1                 OUTFALL      0.00     0.00     0.00     0  00:00        0.00
  JK-2                 OUTFALL      0.00     0.00     0.00     0  00:00        0.00
  WSC                  OUTFALL      0.31     0.53     1.20     0  02:27        0.53
  CC-storage           STORAGE      0.91     1.78     7.28     0  02:19        1.78
  JK-storage           STORAGE      2.21     4.22     5.02     0  01:57        4.16
  XR-storage           STORAGE      7.86     9.26     7.26     0  08:00        9.26
  
  
  *******************
  Node Inflow Summary
  *******************
  
  -------------------------------------------------------------------------------------------------
                                  Maximum  Maximum                  Lateral       Total        Flow
                                  Lateral    Total  Time of Max      Inflow      Inflow     Balance
                                   Inflow   Inflow   Occurrence      Volume      Volume       Error
  Node                 Type           LPS      LPS  days hr:min    10^6 ltr    10^6 ltr     Percent
  -------------------------------------------------------------------------------------------------
  HS02004478           JUNCTION      0.00  2322.46     0  02:35           0        11.2      -0.007
  HS02004479           JUNCTION      0.00   379.80     0  02:10           0        1.11       0.046
  HS02004480           JUNCTION      0.00  2011.61     0  02:06           0        8.16       0.011
  HS02004770           JUNCTION   2721.74  2757.91     0  02:25        4.35        4.62       0.050
  HS02004777           JUNCTION      0.03   685.04     0  02:04    0.000864         2.2       0.233
  HS02004785           JUNCTION      0.15   689.33     0  02:03     0.00432         2.2       0.010
  HS02004788           JUNCTION    981.66   981.66     0  02:25        1.64        3.83      -0.015
  HS02004792           JUNCTION   3377.03  4323.87     0  02:25        5.67         9.5      -0.002
  HS02004799           JUNCTION    600.25  1742.34     0  02:25       0.917        7.57       0.038
  HS02004802           JUNCTION      0.00  1233.25     0  02:31           0        3.31       0.113
  HS02004807           JUNCTION    746.19  1942.55     0  02:25        1.12        3.76       0.104
  HS02004817           JUNCTION      0.60  1197.07     0  02:31      0.0173        2.69       0.596
  HS02004824           JUNCTION   1050.32  1644.74     0  02:25           2        3.09       0.004
  HS02004830           JUNCTION      0.15   608.15     0  02:24     0.00432        1.33       0.077
  HS02004837           JUNCTION    689.10   689.10     0  02:25        1.25        1.74       0.041
  HS02004842           JUNCTION      0.00   689.59     0  02:06           0        1.09       1.179
  HS02004848           JUNCTION    993.63   993.63     0  02:26        2.01        2.68       0.004
  HS02004852           JUNCTION      0.00   907.21     0  02:06           0        2.29      -0.012
  HS02004856           JUNCTION    304.58   929.29     0  02:06       0.463        2.75       0.051
  HS02004862           JUNCTION    451.37  1269.70     0  02:25       0.845         3.6      -0.018
  HS02004870           JUNCTION    406.71  1270.94     0  02:31       0.616        4.03       0.005
  HS02004876           JUNCTION    403.89  1520.51     0  02:30       0.638        4.67       0.007
  HS02004881           JUNCTION    219.44  1700.15     0  02:25       0.325        4.99       0.005
  HS02004901           JUNCTION    640.29   906.08     0  02:25       0.967        1.54       0.107
  WS02001211           JUNCTION      7.35   205.42     0  03:10       0.212        5.44       0.612
  WS02001212           JUNCTION      0.00   214.16     0  03:10           0        5.41       0.291
  WS02001213           JUNCTION      0.00   220.52     0  03:09           0        5.39       0.332
  WS02003059           JUNCTION      0.00   226.88     0  03:09           0        5.38       0.595
  WS02003060           JUNCTION     16.53  1585.93     0  02:25       0.476        15.1       0.096
  WS02003066           JUNCTION      0.00  1387.18     0  02:25           0         9.3       0.015
  WS02003067           JUNCTION      0.00  1386.41     0  02:25           0        9.31       0.046
  WS02003069           JUNCTION      0.32  1580.19     0  02:26     0.00922        15.1       0.102
  WS02003072           JUNCTION      0.00  1578.63     0  02:26           0        15.1       0.137
  WS02003073           JUNCTION      1.82  1580.32     0  02:27      0.0524        15.1       0.143
  WS02004138           JUNCTION      0.00   380.00     0  00:00           0        5.25       0.052
  WS02004139           JUNCTION      0.32   190.95     0  00:29     0.00924        5.26       0.509
  WS02004401           JUNCTION      0.00  1385.02     0  02:25           0        9.41       0.110
  WS02004402           JUNCTION      0.00  1384.58     0  02:25           0         9.4       0.110
  WS02004403           JUNCTION      0.00  1385.05     0  02:25           0        9.39       0.109
  WS02004404           JUNCTION      0.16  1385.77     0  02:25     0.00467        9.39       0.092
  WS02004405           JUNCTION      0.04  1385.83     0  02:25      0.0011        9.38       0.131
  WS02004406           JUNCTION      0.00  1385.33     0  02:25           0        9.37       0.224
  WS02004407           JUNCTION      0.00  1385.17     0  02:25           0        9.34       0.015
  WS02004409           JUNCTION      0.00  1386.05     0  02:25           0        9.34       0.031
  WS02004410           JUNCTION      0.00  1386.04     0  02:25           0        9.34       0.051
  WS02004411           JUNCTION      0.00  1386.19     0  02:25           0        9.34       0.063
  WS02004412           JUNCTION      0.00  1386.27     0  02:25           0        9.33       0.083
  WS02004413           JUNCTION      0.00  1386.26     0  02:25           0        9.32       0.145
  WS02006109           JUNCTION      1.23  1288.91     0  02:21      0.0354        9.17       0.093
  WS02006110           JUNCTION      0.00  1126.90     0  02:45           0        8.66       0.086
  WS02006111           JUNCTION      0.00  1126.99     0  02:45           0        8.65       0.008
  WS02006112           JUNCTION    521.50  1384.45     0  02:25       0.793        9.44       0.206
  WS02006113           JUNCTION      0.00  1126.93     0  02:45           0        8.65       0.023
  WS02006115           JUNCTION      0.00  1384.36     0  02:25           0        9.42       0.072
  WS02006116           JUNCTION      0.00  1384.27     0  02:25           0        9.42       0.050
  WS02006228           JUNCTION      0.00  1289.19     0  02:20           0        9.14       0.048
  WS02006229           JUNCTION      0.00  2304.95     0  02:18           0        12.6       0.060
  WS02006230           JUNCTION     10.28  1026.00     0  02:18       0.296        4.97       0.156
  WS02006231           JUNCTION      0.00   455.20     0  02:35           0         3.2      -0.113
  WS02006232           JUNCTION      0.00   453.60     0  02:06           0        3.18       0.144
  WS02006234           JUNCTION      0.00   453.40     0  02:07           0        3.15      -0.136
  WS02006235           JUNCTION      0.00   432.63     0  02:35           0         3.2       0.129
  WS02006238           JUNCTION      0.00   418.11     0  02:35           0        2.93      -0.125
  WS02006239           JUNCTION      0.00   415.39     0  02:35           0        2.91      -0.118
  WS02006240           JUNCTION      0.00   421.61     0  02:35           0        2.88      -0.017
  WS02006242           JUNCTION      0.00   416.18     0  02:35           0        2.87       0.004
  WS02006243           JUNCTION      0.00   394.76     0  03:32           0        2.26      -0.038
  WS02006245           JUNCTION      0.00   394.74     0  03:33           0        2.26       0.303
  WS02006247           JUNCTION      0.00   394.71     0  03:33           0        2.25       0.004
  WS02006248           JUNCTION      0.00   394.73     0  03:33           0        2.58       0.019
  WS02006249           JUNCTION      0.00  1390.91     0  02:25           0        6.97       0.057
  WS02006251           JUNCTION      0.08  1756.03     0  02:25     0.00222        7.29      -0.018
  WS02006252           JUNCTION      0.00   765.54     0  02:25           0        3.28      -0.030
  WS02006253           JUNCTION     55.64  1755.82     0  02:24      0.0784        5.09      -0.002
  WS02006256           JUNCTION      0.00   300.00     0  00:00           0        2.02      -0.113
  WS02006280           JUNCTION      0.00  2303.31     0  02:20           0        11.2       0.002
  WS02006284           JUNCTION      0.10  2303.22     0  02:18     0.00275        11.2       0.004
  WS02006287           JUNCTION      0.00  2305.19     0  02:21           0        11.2       0.005
  WSF200               JUNCTION      0.00  1386.78     0  02:25           0         9.3       0.007
  YS02001580           JUNCTION      0.00   171.74     0  01:33           0     0.00456      -0.090
  YS02001583           JUNCTION      0.00   267.67     0  01:33           0      0.0147     -11.579
  YS02001586           JUNCTION    846.31   846.33     0  01:42        2.16        2.17       0.078
  YS02001590           JUNCTION      0.00   318.80     0  02:03           0        1.55      -0.029
  YS02001593           JUNCTION      0.00   318.17     0  02:03           0        1.55       0.006
  YS02001596           JUNCTION      0.00   317.99     0  02:06           0        1.55      -0.001
  YS02001600           JUNCTION      0.00   318.25     0  02:06           0        1.55       0.006
  YS02001601           JUNCTION   1562.26  1880.05     0  01:40        2.93        4.48       0.014
  YS02001602           JUNCTION      0.00   578.92     0  01:33           0        2.52       0.018
  YS02001605           JUNCTION      0.00   578.93     0  01:33           0        2.36       0.024
  YS02001607           JUNCTION      0.00   578.82     0  01:33           0        2.36       0.076
  YS02001610           JUNCTION      0.00   848.22     0  01:42           0        2.78       0.078
  YS02001613           JUNCTION      0.00   548.13     0  01:33           0        2.13       0.079
  YS02001616           JUNCTION      0.00   546.01     0  01:33           0        2.13       0.015
  YS02001619           JUNCTION   1504.37  1504.37     0  01:42        3.46        5.17      -0.007
  YS02001622           JUNCTION      0.00   997.36     0  01:41           0        4.75      -0.009
  YS02001625           JUNCTION      0.00  1410.35     0  01:43           0        5.05       0.181
  YS02001629           JUNCTION      0.00   933.90     0  01:33           0        3.74      -0.005
  YS02001633           JUNCTION   1169.56  1420.48     0  01:35        2.15        5.47       0.062
  YS02001641           JUNCTION      0.00  1418.36     0  01:34           0        5.08       0.055
  YS02001644           JUNCTION   1048.74  1944.95     0  01:35        1.87        6.93       0.046
  YS02001647           JUNCTION      0.00  1944.41     0  01:35           0        6.18       0.005
  YS02001649           JUNCTION      0.00  2210.73     0  01:35           0         7.9       0.008
  YS02001652           JUNCTION      0.00  1093.94     0  01:37           0        1.72      -0.088
  YS02001655           JUNCTION      0.15  1093.64     0  01:37     0.00443        1.72      -0.099
  YS02001658           JUNCTION      0.00  1093.24     0  01:37           0        1.72      -0.052
  YS02001661           JUNCTION      0.00  1091.45     0  01:37           0        1.72       0.026
  YS02001664           JUNCTION   1020.95  1020.95     0  01:39        1.71        1.71      -0.028
  YS02001745           JUNCTION    669.49   799.02     0  01:36        1.03        1.03       0.168
  YS02001748           JUNCTION      0.04   980.22     0  01:36      0.0013        1.04      -0.411
  YS02001751           JUNCTION      0.01   696.59     0  01:36    0.000317        1.04       0.066
  YS02001754           JUNCTION      0.26   697.42     0  01:36     0.00749        1.06      -0.210
  YS02001757           JUNCTION      0.00  3611.33     0  01:37           0        12.1       0.044
  YS02001759           JUNCTION    924.92  1546.82     0  01:36        1.42         3.2      -0.005
  YS02001762           JUNCTION      0.00   766.52     0  01:36           0        1.78       0.002
  YS02001765           JUNCTION      0.00   767.95     0  01:36           0        1.78       0.025
  YS02001767           JUNCTION      0.54   768.83     0  01:36      0.0154        1.78      -0.024
  YS02001770           JUNCTION   1299.57  1299.57     0  01:39        2.16        2.21      -0.031
  YS02001774           JUNCTION      0.00   767.98     0  01:39           0       0.461       0.235
  YS02001779           JUNCTION      0.01   767.53     0  01:39    0.000144       0.415      -0.151
  YS02001783           JUNCTION      0.00  1170.59     0  01:36           0        4.66       0.004
  YS02001784           JUNCTION      1.06  1172.10     0  01:37      0.0305        4.69       0.012
  YS02001786           JUNCTION      0.06  1171.94     0  01:36     0.00162        4.69       0.015
  YS02001788           JUNCTION      0.07  1172.90     0  01:36     0.00204        4.69       0.006
  YS02001790           JUNCTION      0.15  1184.99     0  01:36     0.00446         4.7       0.016
  YS02001791           JUNCTION      0.00  1287.77     0  01:39           0        4.69      -0.018
  YS02001793           JUNCTION      0.00  1260.26     0  01:39           0         4.7       0.004
  YS02001882           JUNCTION      0.00    81.93     0  01:34           0       0.013       4.245
  YS02001884           JUNCTION      0.00   154.26     0  01:34           0      0.0488       5.196
  YS02001887           JUNCTION   1019.73  1022.58     0  01:38        1.48        1.51       0.289
  YS02001890           JUNCTION      0.00  1020.31     0  01:38           0        1.47       0.339
  YS02001895           JUNCTION      0.00   601.78     0  01:35           0        1.27       0.101
  YS02001898           JUNCTION      0.00   602.80     0  01:35           0        1.26      -0.042
  YS02001901           JUNCTION      0.00   604.80     0  01:34           0        1.27       0.266
  YS02001904           JUNCTION      0.00   605.99     0  01:34           0        1.27       0.212
  YS02001907           JUNCTION      0.00  2360.54     0  01:40           0        4.53       0.383
  YS02001910           JUNCTION      0.00  1684.44     0  01:40           0        3.22       0.218
  YS02001915           JUNCTION   1136.63  1684.78     0  01:40        2.06        3.28       0.044
  YS02001918           JUNCTION      0.00   756.18     0  01:35           0        1.25      -0.014
  YS02001920           JUNCTION      2.87   737.48     0  01:35      0.0827        1.23       0.057
  YS02001923           JUNCTION      0.04   982.30     0  01:35     0.00109        1.13      -0.094
  YS02001926           JUNCTION      0.05  1245.70     0  01:35      0.0015        1.11      -0.057
  YS02001929           JUNCTION    545.10   913.08     0  01:35        1.08        1.09      -0.060
  YS02006553           JUNCTION      0.00   798.01     0  02:03           0        2.62       0.449
  YS02006556           JUNCTION      0.00   797.20     0  02:03           0        2.63       0.305
  YS02006558           JUNCTION   1335.19  1335.19     0  01:39        2.17        4.73       0.077
  YS02006561           JUNCTION      0.00  1171.75     0  01:37           0        4.66       0.000
  YS02163301           JUNCTION      0.00   874.55     0  01:34           0        3.73       0.039
  YS02163601           JUNCTION      0.11  1420.14     0  01:34     0.00317        5.07       0.095
  YS02164001           JUNCTION      0.00  1419.54     0  01:34           0        5.07       0.043
  YSB1154              JUNCTION    693.03   693.03     0  02:25        1.09         1.1       0.129
  YSB1171              JUNCTION      0.00  1463.43     0  02:25           0        2.17       0.277
  YSB1174              JUNCTION    585.41   585.41     0  02:25       0.838       0.838       0.144
  YSB6556              JUNCTION      0.00   692.99     0  02:25           0         1.1       0.090
  CC-1                 OUTFALL       0.00   683.00     0  00:00           0        4.89       0.000
  CC-2                 OUTFALL       0.00   683.00     0  00:00           0        4.71       0.000
  JK-1                 OUTFALL       0.00  1000.00     0  00:00           0        2.63       0.000
  JK-2                 OUTFALL       0.00  1000.00     0  00:00           0      0.0484       0.000
  WSC                  OUTFALL       0.00  1580.93     0  02:27           0        15.1       0.000
  CC-storage           STORAGE       0.00  3611.54     0  01:37           0        14.4      -0.152
  JK-storage           STORAGE       0.00  1306.27     0  01:40           0        4.85      -0.006
  XR-storage           STORAGE     200.00   200.00     0  00:00        5.76        6.36       0.001
  
  
  **********************
  Node Surcharge Summary
  **********************
  
  Surcharging occurs when water rises above the top of the highest conduit.
  ---------------------------------------------------------------------
                                               Max. Height   Min. Depth
                                   Hours       Above Crown    Below Rim
  Node                 Type      Surcharged         Meters       Meters
  ---------------------------------------------------------------------
  HS02004478           JUNCTION        0.76          0.822        0.118
  HS02004479           JUNCTION        0.92          1.024        0.026
  HS02004480           JUNCTION        0.97          1.100        0.000
  HS02004770           JUNCTION        0.84          0.720        0.000
  HS02004777           JUNCTION        0.85          0.780        0.000
  HS02004785           JUNCTION        0.79          0.790        0.000
  HS02004788           JUNCTION        0.78          0.720        0.000
  HS02004792           JUNCTION        0.93          0.900        0.000
  HS02004799           JUNCTION        1.11          1.060        0.000
  HS02004802           JUNCTION        0.99          1.210        0.000
  HS02004807           JUNCTION        0.96          1.220        0.000
  HS02004817           JUNCTION        1.59          1.740        0.000
  HS02004824           JUNCTION        0.78          1.310        0.000
  HS02004830           JUNCTION        0.76          1.330        0.000
  HS02004837           JUNCTION        0.70          1.335        0.005
  HS02004842           JUNCTION        0.87          1.520        0.000
  HS02004848           JUNCTION        0.67          1.370        0.000
  HS02004852           JUNCTION        0.69          1.420        0.000
  HS02004856           JUNCTION        0.69          1.300        0.000
  HS02004862           JUNCTION        0.73          1.300        0.000
  HS02004870           JUNCTION        0.75          1.400        0.000
  HS02004876           JUNCTION        0.83          1.560        0.000
  HS02004881           JUNCTION        0.81          1.358        0.092
  HS02004901           JUNCTION        0.85          0.720        0.000
  WS02004401           JUNCTION        1.82          1.086        0.574
  WS02004402           JUNCTION        1.86          1.015        0.725
  WS02004403           JUNCTION        1.86          0.931        1.099
  WS02004404           JUNCTION        2.01          0.930        1.850
  WS02004405           JUNCTION        2.00          0.876        1.924
  WS02004406           JUNCTION        1.97          0.742        1.708
  WS02004407           JUNCTION        0.09          0.067        2.273
  WS02004409           JUNCTION        1.44          0.622        1.738
  WS02004410           JUNCTION        1.38          0.551        1.989
  WS02004411           JUNCTION        1.28          0.271        2.259
  WS02004412           JUNCTION        1.16          0.150        2.160
  WS02004413           JUNCTION        1.62          0.171        2.029
  WS02006109           JUNCTION        2.21          1.820        0.000
  WS02006110           JUNCTION        2.08          1.850        0.000
  WS02006111           JUNCTION        1.57          1.177        0.693
  WS02006112           JUNCTION        2.12          1.680        0.000
  WS02006113           JUNCTION        1.59          1.180        0.750
  WS02006115           JUNCTION        1.72          1.219        1.031
  WS02006116           JUNCTION        1.74          1.137        1.153
  WS02006228           JUNCTION        2.21          2.200        0.000
  WS02006229           JUNCTION        1.32          1.070        0.000
  WS02006230           JUNCTION        2.01          1.570        0.000
  WS02006231           JUNCTION        2.02          1.530        0.000
  WS02006232           JUNCTION        2.09          1.480        0.000
  WS02006234           JUNCTION        2.02          1.240        0.000
  WS02006235           JUNCTION        2.03          1.253        0.037
  WS02006238           JUNCTION        2.04          1.430        0.000
  WS02006239           JUNCTION        2.01          1.290        0.000
  WS02006240           JUNCTION        2.01          1.390        0.000
  WS02006242           JUNCTION        2.01          0.820        0.000
  WS02006243           JUNCTION        1.98          0.770        0.000
  WS02006245           JUNCTION        1.97          0.664        0.186
  WS02006247           JUNCTION        1.97          0.760        0.000
  WS02006248           JUNCTION        1.96          0.380        0.000
  WS02006249           JUNCTION        1.96          0.390        0.000
  WS02006251           JUNCTION        1.93          1.180        0.000
  WS02006252           JUNCTION        2.08          1.100        0.000
  WS02006253           JUNCTION        1.94          2.196        0.284
  WS02006256           JUNCTION        4.83          2.050        0.000
  WS02006280           JUNCTION        1.14          0.745        0.035
  WS02006284           JUNCTION        1.02          0.800        0.000
  WS02006287           JUNCTION        0.88          0.890        0.000
  YS02001580           JUNCTION        0.80          0.450        0.000
  YS02001583           JUNCTION        0.81          0.500        0.000
  YS02001586           JUNCTION        0.98          0.510        0.000
  YS02001590           JUNCTION        1.06          0.750        0.000
  YS02001593           JUNCTION        1.06          0.736        0.104
  YS02001596           JUNCTION        1.18          0.970        0.100
  YS02001600           JUNCTION        1.35          1.190        0.000
  YS02001601           JUNCTION        1.68          1.440        0.000
  YS02001602           JUNCTION        1.60          1.270        0.000
  YS02001605           JUNCTION        1.56          1.180        0.000
  YS02001607           JUNCTION        1.07          0.662        0.018
  YS02001610           JUNCTION        1.10          0.680        0.000
  YS02001613           JUNCTION        1.06          0.679        0.021
  YS02001616           JUNCTION        1.02          0.610        0.000
  YS02001619           JUNCTION        1.00          0.610        0.000
  YS02001622           JUNCTION        1.00          0.620        0.000
  YS02001625           JUNCTION        1.20          0.780        0.000
  YS02001629           JUNCTION        0.95          0.470        0.000
  YS02001633           JUNCTION        1.24          1.043        0.017
  YS02001641           JUNCTION        1.20          0.974        0.126
  YS02001644           JUNCTION        1.17          0.920        0.000
  YS02001647           JUNCTION        0.96          0.836        0.064
  YS02001649           JUNCTION        1.12          1.050        0.000
  YS02001652           JUNCTION        0.89          1.130        0.000
  YS02001655           JUNCTION        0.66          1.200        0.000
  YS02001658           JUNCTION        0.33          1.300        0.000
  YS02001661           JUNCTION        0.10          1.155        0.235
  YS02001664           JUNCTION        0.01          0.824        0.486
  YS02001745           JUNCTION        0.01          1.350        0.000
  YS02001748           JUNCTION        0.24          1.190        0.000
  YS02001751           JUNCTION        0.46          1.200        0.000
  YS02001754           JUNCTION        0.78          1.150        0.000
  YS02001757           JUNCTION        1.21          1.210        0.000
  YS02001759           JUNCTION        1.10          1.210        0.000
  YS02001762           JUNCTION        1.06          1.150        0.000
  YS02001765           JUNCTION        1.01          1.100        0.000
  YS02001767           JUNCTION        0.96          1.030        0.000
  YS02001770           JUNCTION        0.93          0.920        0.000
  YS02001774           JUNCTION        1.04          1.012        0.038
  YS02001779           JUNCTION        0.75          0.680        0.000
  YS02001783           JUNCTION        0.68          0.543        1.057
  YS02001784           JUNCTION        0.65          0.418        1.072
  YS02001786           JUNCTION        0.54          0.233        1.197
  YS02001882           JUNCTION        0.61          0.830        0.000
  YS02001884           JUNCTION        0.62          0.843        0.027
  YS02001887           JUNCTION        0.66          0.854        0.096
  YS02001890           JUNCTION        0.68          0.760        0.000
  YS02001895           JUNCTION        0.60          0.750        0.000
  YS02001898           JUNCTION        0.60          0.740        0.000
  YS02001901           JUNCTION        0.65          0.870        0.000
  YS02001904           JUNCTION        0.64          0.835        0.015
  YS02001907           JUNCTION        0.88          0.950        0.000
  YS02001910           JUNCTION        0.71          1.011        0.089
  YS02001915           JUNCTION        0.61          1.000        0.000
  YS02001918           JUNCTION        0.52          0.810        0.000
  YS02001920           JUNCTION        0.54          1.140        0.000
  YS02001923           JUNCTION        0.19          0.820        0.000
  YS02001926           JUNCTION        0.22          0.900        0.000
  YS02001929           JUNCTION        0.02          0.780        0.000
  YS02006553           JUNCTION        0.91          1.003        0.187
  YS02006556           JUNCTION        0.80          0.979        0.371
  YS02006558           JUNCTION        0.79          0.977        0.423
  YS02006561           JUNCTION        0.48          0.224        0.926
  YS02163301           JUNCTION        1.21          0.942        0.088
  YS02163601           JUNCTION        1.27          1.077        0.003
  YS02164001           JUNCTION        1.20          0.992        0.108
  YSB1154              JUNCTION        1.26          1.400        0.000
  YSB1171              JUNCTION        1.26          1.100        0.000
  YSB1174              JUNCTION        1.16          1.250        0.000
  YSB6556              JUNCTION        1.06          1.100        0.000
  
  
  *********************
  Node Flooding Summary
  *********************
  
  Flooding refers to all water that overflows a node, whether it ponds or not.
  --------------------------------------------------------------------------
                                                             Total   Maximum
                                 Maximum   Time of Max       Flood    Ponded
                        Hours       Rate    Occurrence      Volume     Depth
  Node                 Flooded       LPS   days hr:min    10^6 ltr    Meters
  --------------------------------------------------------------------------
  HS02004480              0.01     26.12      0  02:07       0.000     0.000
  HS02004770              0.63   2491.09      0  02:25       1.849     0.000
  HS02004777              0.01     13.69      0  02:35       0.000     0.000
  HS02004785              0.01      0.45      0  02:35       0.000     0.000
  HS02004788              0.01    174.93      0  02:03       0.000     0.000
  HS02004792              0.61   3179.93      0  02:25       2.852     0.000
  HS02004799              0.37    437.10      0  02:25       0.266     0.000
  HS02004802              0.01      5.95      0  02:07       0.000     0.000
  HS02004807              0.25    710.30      0  02:25       0.402     0.000
  HS02004817              0.01      6.55      0  02:07       0.000     0.000
  HS02004824              0.20    448.34      0  02:25       0.189     0.000
  HS02004830              0.01      7.33      0  02:07       0.000     0.000
  HS02004842              0.18    558.31      0  02:25       0.202     0.000
  HS02004848              0.01      6.83      0  02:07       0.000     0.000
  HS02004852              0.01    290.44      0  02:06       0.000     0.000
  HS02004856              0.01      8.83      0  02:07       0.000     0.000
  HS02004862              0.17    599.32      0  02:25       0.183     0.000
  HS02004870              0.01     10.09      0  02:07       0.000     0.000
  HS02004876              0.01      8.47      0  02:07       0.000     0.000
  HS02004901              0.72    905.82      0  02:25       1.274     0.000
  WS02006109              0.66    425.32      0  02:25       0.503     0.000
  WS02006110              0.01      0.18      0  02:35       0.000     0.000
  WS02006112              0.01      0.17      0  02:24       0.000     0.000
  WS02006228              0.01     14.85      0  02:35       0.000     0.000
  WS02006229              0.01     27.35      0  02:35       0.000     0.000
  WS02006230              1.02    573.04      0  02:18       1.503     0.000
  WS02006231              0.01      0.29      0  02:06       0.000     0.000
  WS02006232              0.22      9.21      0  02:35       0.000     0.000
  WS02006234              1.14    128.75      0  02:03       0.495     0.000
  WS02006238              0.01      0.25      0  02:35       0.000     0.000
  WS02006239              0.01      0.22      0  02:35       0.000     0.000
  WS02006240              0.01     65.18      0  01:34       0.000     0.000
  WS02006242              1.28    138.74      0  02:35       0.591     0.000
  WS02006243              0.01     23.88      0  01:36       0.000     0.000
  WS02006247              0.01    114.56      0  01:36       0.000     0.000
  WS02006248              1.55    339.31      0  02:35       1.730     0.000
  WS02006249              1.94   1329.97      0  02:25       5.784     0.000
  WS02006251              0.01    276.23      0  01:36       0.000     0.000
  WS02006252              0.74    765.16      0  02:25       1.084     0.000
  WS02006256              1.86    293.19      0  00:00       1.203     0.000
  WS02006284              0.01      0.31      0  02:35       0.000     0.000
  WS02006287              0.01     11.48      0  02:07       0.000     0.000
  YS02001580              0.01    104.77      0  01:33       0.000     0.000
  YS02001583              0.01    208.29      0  01:33       0.000     0.000
  YS02001586              0.65    528.97      0  01:42       0.608     0.000
  YS02001590              0.01     74.05      0  01:32       0.000     0.000
  YS02001600              0.01      4.58      0  01:33       0.000     0.000
  YS02001601              0.90   1482.19      0  01:40       1.959     0.000
  YS02001602              0.80     62.02      0  02:05       0.164     0.000
  YS02001605              0.01      3.24      0  01:33       0.000     0.000
  YS02001610              0.71    847.93      0  01:42       1.061     0.000
  YS02001616              0.01     82.35      0  01:33       0.000     0.000
  YS02001619              0.01     96.47      0  01:33       0.000     0.000
  YS02001622              0.01    182.06      0  01:33       0.000     0.000
  YS02001625              0.68   1410.35      0  01:43       1.703     0.000
  YS02001629              0.18    411.48      0  01:38       0.120     0.000
  YS02001644              0.27   1345.68      0  01:40       0.744     0.000
  YS02001649              0.01    229.08      0  01:37       0.005     0.000
  YS02001652              0.01     57.31      0  01:36       0.000     0.000
  YS02001655              0.01    527.21      0  01:36       0.001     0.000
  YS02001658              0.01    462.22      0  01:36       0.001     0.000
  YS02001745              0.01    448.88      0  01:36       0.000     0.000
  YS02001748              0.01    578.04      0  01:36       0.002     0.000
  YS02001751              0.01    469.85      0  01:36       0.001     0.000
  YS02001754              0.01    310.90      0  01:35       0.000     0.000
  YS02001757              0.01     38.58      0  01:36       0.000     0.000
  YS02001759              0.01      5.32      0  01:36       0.000     0.000
  YS02001762              0.01     12.68      0  01:36       0.000     0.000
  YS02001765              0.01      9.60      0  01:36       0.000     0.000
  YS02001767              0.01    170.67      0  01:35       0.000     0.000
  YS02001770              0.02    360.88      0  01:35       0.005     0.000
  YS02001779              0.24    767.50      0  01:39       0.394     0.000
  YS02001882              0.01     64.36      0  01:34       0.000     0.000
  YS02001890              0.22    498.04      0  01:38       0.202     0.000
  YS02001895              0.01    159.35      0  01:34       0.000     0.000
  YS02001898              0.01    289.58      0  01:34       0.001     0.000
  YS02001901              0.01     17.66      0  01:34       0.000     0.000
  YS02001907              0.47   2360.03      0  01:40       1.935     0.000
  YS02001915              0.01    256.63      0  01:34       0.000     0.000
  YS02001918              0.01    273.98      0  01:35       0.005     0.000
  YS02001920              0.01    256.70      0  01:35       0.000     0.000
  YS02001923              0.01    366.84      0  01:35       0.002     0.000
  YS02001926              0.01    804.90      0  01:35       0.005     0.000
  YS02001929              0.01    810.22      0  01:35       0.002     0.000
  YSB1154                 0.01      0.59      0  02:24       0.000     0.000
  YSB1171                 0.49   1462.87      0  02:25       1.298     0.000
  YSB1174                 0.01     42.69      0  02:35       0.000     0.000
  YSB6556                 0.05     52.99      0  02:25       0.005     0.000
  
  
  **********************
  Storage Volume Summary
  **********************
  
  --------------------------------------------------------------------------------------------------
                         Average     Avg  Evap Exfil       Maximum     Max    Time of Max    Maximum
                          Volume    Pcnt  Pcnt  Pcnt        Volume    Pcnt     Occurrence    Outflow
  Storage Unit           1000 m3    Full  Loss  Loss       1000 m3    Full    days hr:min        LPS
  --------------------------------------------------------------------------------------------------
  CC-storage               2.542      40     0     0         4.956      77       0  02:19    1783.53
  JK-storage               0.111      38     0     0         0.212      73       0  01:57    2300.00
  XR-storage               0.943      66     0     0         1.111      77       0  08:00     380.00
  
  
  ***********************
  Outfall Loading Summary
  ***********************
  
  -----------------------------------------------------------
                         Flow       Avg       Max       Total
                         Freq      Flow      Flow      Volume
  Outfall Node           Pcnt       LPS       LPS    10^6 ltr
  -----------------------------------------------------------
  CC-1                  39.08    683.00    683.00       4.889
  CC-2                  37.42    683.00    683.00       4.706
  JK-1                  15.69   1000.00   1000.00       2.634
  JK-2                   0.20   1000.00   1000.00       0.048
  WSC                   99.94    690.74   1580.93      15.109
  -----------------------------------------------------------
  System                38.47   4056.74   1580.93      27.387
  
  
  ********************
  Link Flow Summary
  ********************
  
  -----------------------------------------------------------------------------
                                 Maximum  Time of Max   Maximum    Max/    Max/
                                  |Flow|   Occurrence   |Veloc|    Full    Full
  Link                 Type          LPS  days hr:min     m/sec    Flow   Depth
  -----------------------------------------------------------------------------
  1                    CONDUIT   1580.93     0  02:27      3.74    0.55    0.53
  HS02004478WS02006287 CONDUIT   2305.19     0  02:21      2.56    0.65    1.00
  HS02004479HS02004480 CONDUIT    380.86     0  02:10      0.54    0.37    1.00
  HS02004480HS02004478 CONDUIT   2012.50     0  02:06      2.87    8.48    1.00
  HS02004770HS02004777 CONDUIT    685.01     0  02:04      0.98    1.25    1.00
  HS02004777HS02004785 CONDUIT    689.18     0  02:03      1.02    0.85    1.00
  HS02004785HS02004788 CONDUIT    688.98     0  02:03      1.35    5.19    1.00
  HS02004788HS02004792 CONDUIT    953.20     0  02:24      1.46    0.63    1.00
  HS02004792HS02004799 CONDUIT   1569.00     0  02:04      2.24    0.96    1.00
  HS02004799HS02004480 CONDUIT   1701.82     0  02:05      2.43    2.15    1.00
  HS02004802HS02004478 CONDUIT   1233.45     0  02:31      1.76    1.09    1.00
  HS02004807HS02004802 CONDUIT   1233.25     0  02:31      1.76    2.35    1.00
  HS02004817HS02004807 CONDUIT   1197.13     0  02:31      1.71    0.71    1.00
  HS02004817HS02004824 CONDUIT   1196.47     0  02:31      1.71    0.54    1.00
  HS02004824HS02004830 CONDUIT    608.13     0  02:24      0.87    0.80    1.00
  HS02004830HS02004837 CONDUIT    608.00     0  02:24      0.87    0.61    1.00
  HS02004837HS02004842 CONDUIT    689.59     0  02:06      0.99    0.41    1.00
  HS02004842HS02004848 CONDUIT    690.07     0  02:06      1.06    0.40    1.00
  HS02004848HS02004852 CONDUIT    907.21     0  02:06      1.48    1.02    1.00
  HS02004852HS02004856 CONDUIT    856.98     0  02:06      1.39    0.98    1.00
  HS02004856HS02004862 CONDUIT    906.63     0  02:06      1.58    0.90    1.00
  HS02004862HS02004870 CONDUIT   1070.78     0  02:32      1.63    1.16    1.00
  HS02004870HS02004876 CONDUIT   1271.46     0  02:31      1.82    0.84    1.00
  HS02004876HS02004881 CONDUIT   1520.61     0  02:30      2.18   16.17    1.00
  HS02004881HS02006253 CONDUIT   1700.21     0  02:24      2.75    0.33    1.00
  HS02004901HS02004770 CONDUIT    265.79     0  02:41      0.38    1.00    1.00
  WS02001211WS02001212 CONDUIT    214.16     0  03:10      0.54    0.16    0.71
  WS02001212WS02001213 CONDUIT    220.52     0  03:09      1.04    0.34    0.58
  WS02001213WS02003059 CONDUIT    226.88     0  03:09      0.47    0.37    0.91
  WS02003059WS02003060 CONDUIT    235.65     0  03:08      0.66    0.15    0.83
  WS02003060WS02003069 CONDUIT   1579.87     0  02:26      2.11    0.62    0.63
  WS02003066WSF200     CONDUIT   1386.78     0  02:25      3.28    0.23    0.40
  WS02003067WS02003066 CONDUIT   1387.18     0  02:25      2.08    0.44    0.57
  WS02003069WS02003072 CONDUIT   1578.63     0  02:26      1.92    0.76    0.68
  WS02003072WS02003073 CONDUIT   1578.50     0  02:27      2.09    3.41    0.63
  WS02004138WS02004139 CONDUIT    190.63     0  00:29      2.18    0.04    0.43
  WS02004139WS02001211 CONDUIT    198.08     0  03:10      0.54    0.25    0.62
  WS02004401WS02004402 CONDUIT   1384.58     0  02:25      1.76    1.66    1.00
  WS02004402WS02004403 CONDUIT   1385.05     0  02:25      1.76    1.99    1.00
  WS02004403WS02004404 CONDUIT   1385.61     0  02:25      1.76    1.00    1.00
  WS02004404WS02004405 CONDUIT   1385.79     0  02:25      1.76   13.58    1.00
  WS02004405WS02004406 CONDUIT   1385.33     0  02:25      1.76    2.73    1.00
  WS02004406WS02004407 CONDUIT   1385.17     0  02:25      1.76    0.62    1.00
  WS02004407WS02004409 CONDUIT   1386.05     0  02:25      1.81    0.49    1.00
  WS02004409WS02004410 CONDUIT   1386.04     0  02:25      1.76    1.79    1.00
  WS02004410WS02004411 CONDUIT   1386.19     0  02:25      1.76    1.89    1.00
  WS02004411WS02004412 CONDUIT   1386.27     0  02:25      1.77    1.97    1.00
  WS02004412WS02004413 CONDUIT   1386.26     0  02:25      1.77    0.93    1.00
  WS02004413WS02003067 CONDUIT   1386.41     0  02:25      2.12    0.59    0.78
  WS02006109WS02006110 CONDUIT   1126.90     0  02:45      2.24    2.17    1.00
  WS02006110WS02006113 CONDUIT   1126.93     0  02:45      2.24    1.03    1.00
  WS02006111WS02006112 CONDUIT   1127.32     0  02:45      2.24    0.54    1.00
  WS02006112WS02006115 CONDUIT   1384.36     0  02:25      1.76    0.82    1.00
  WS02006113WS02006111 CONDUIT   1126.99     0  02:45      2.63    1.35    1.00
  WS02006115WS02006116 CONDUIT   1384.27     0  02:25      1.76    1.78    1.00
  WS02006116WS02004401 CONDUIT   1385.02     0  02:25      1.76    1.91    1.00
  WS02006228WS02006109 CONDUIT   1287.68     0  02:21      2.56    5.63    1.00
  WS02006229WS02006228 CONDUIT   1289.19     0  02:20      2.56    4.27    1.00
  WS02006230WS02006229 CONDUIT   1015.72     0  02:18      2.64   22.60    1.00
  WS02006231WS02006230 CONDUIT    455.20     0  02:35      1.34    6.90    1.00
  WS02006232WS02006231 CONDUIT    453.60     0  02:06      1.18    0.95    1.00
  WS02006234WS02006232 CONDUIT    453.40     0  02:07      1.41    0.92    1.00
  WS02006235WS02006234 CONDUIT    394.95     0  03:33      1.23    4.17    1.00
  WS02006238WS02006235 CONDUIT    418.11     0  02:35      1.45    0.93    1.00
  WS02006239WS02006238 CONDUIT    415.39     0  02:35      1.12    1.33    1.00
  WS02006240WS02006239 CONDUIT    421.61     0  02:35      1.26    1.33    1.00
  WS02006242WS02006240 CONDUIT    416.18     0  02:35      1.14    1.65    1.00
  WS02006243WS02006242 CONDUIT    395.04     0  03:33      1.34    0.84    1.00
  WS02006245WS02006243 CONDUIT    394.76     0  03:32      1.39    1.17    1.00
  WS02006247WS02006245 CONDUIT    394.74     0  03:33      1.37    3.13    1.00
  WS02006248WS02006247 CONDUIT    394.71     0  03:33      1.38    0.86    1.00
  WS02006249WS02006248 CONDUIT    394.73     0  03:33      1.38    2.16    1.00
  WS02006251WS02006249 CONDUIT   1390.91     0  02:25      3.61    4.01    1.00
  WS02006252WS02006251 CONDUIT    410.13     0  01:38     24.89    1.51    1.00
  WS02006253WS02006251 CONDUIT   1755.95     0  02:25      4.56    5.27    1.00
  WS02006256WS02006235 CONDUIT    288.93     0  00:00      4.23    3.06    1.00
  WS02006280WS02006229 CONDUIT   2304.95     0  02:18      4.32    0.49    1.00
  WS02006284WS02006280 CONDUIT   2303.31     0  02:20      2.96    0.96    1.00
  WS02006287WS02006284 CONDUIT   2303.13     0  02:18      2.93    1.07    1.00
  WSF200WS02003060     CONDUIT   1387.85     0  02:25      2.33    0.31    0.52
  YS02001580YS02001583 CONDUIT    171.74     0  01:33      0.91    0.67    1.00
  YS02001583YS02001586 CONDUIT    204.41     0  01:33      0.92    0.31    1.00
  YS02001586YS02001590 CONDUIT    318.80     0  02:03      1.28    0.56    1.00
  YS02001590YS02001593 CONDUIT    318.17     0  02:03      1.13    2.00    1.00
  YS02001593YS02001596 CONDUIT    317.99     0  02:06      1.73    0.50    1.00
  YS02001596YS02001600 CONDUIT    318.25     0  02:06      1.23    0.62    1.00
  YS02001600YS02001601 CONDUIT    319.11     0  02:06      1.13    0.55    1.00
  YS02001601YS02001602 CONDUIT    578.92     0  01:33      2.05    2.09    1.00
  YS02001602YS02001605 CONDUIT    578.93     0  01:33      2.05   12.25    1.00
  YS02001605YS02001607 CONDUIT    578.82     0  01:33      2.05    3.17    1.00
  YS02001607YS02001610 CONDUIT    550.63     0  01:33      0.72    0.52    1.00
  YS02001610YS02001613 CONDUIT    548.13     0  01:33      0.70    0.63    1.00
  YS02001613YS02001616 CONDUIT    546.01     0  01:33      0.70    0.47    1.00
  YS02001616YS02001619 CONDUIT    512.37     0  01:42      0.69    0.89    1.00
  YS02001619YS02001622 CONDUIT    997.36     0  01:41      1.30    1.47    1.00
  YS02001622YS02001625 CONDUIT    997.40     0  01:40      1.27    0.53    1.00
  YS02001625YS02001629 CONDUIT    933.90     0  01:33      1.19    0.44    1.00
  YS02001629YS02163301 CONDUIT    874.55     0  01:34      1.11    1.08    1.00
  YS02001633YS02163601 CONDUIT   1420.03     0  01:34      1.81    1.49    1.00
  YS02001641YS02001644 CONDUIT   1417.93     0  01:34      1.81    4.58    1.00
  YS02001644YS02001647 CONDUIT   1944.41     0  01:35      2.48    1.14    1.00
  YS02001647YS02001649 CONDUIT   1946.76     0  01:35      2.48    1.03    1.00
  YS02001649YS02001757 CONDUIT   2212.41     0  01:35      2.82    1.34    1.00
  YS02001652YS02001649 CONDUIT   1094.18     0  01:37      1.39    0.54    1.00
  YS02001655YS02001652 CONDUIT   1093.94     0  01:37      1.56    0.53    1.00
  YS02001658YS02001655 CONDUIT   1093.49     0  01:37      2.06    0.46    1.00
  YS02001661YS02001658 CONDUIT   1093.24     0  01:37      2.47    0.43    1.00
  YS02001664YS02001661 CONDUIT   1091.45     0  01:37      2.56    0.34    1.00
  YS02001745YS02001748 CONDUIT    697.32     0  01:36      2.46    0.27    1.00
  YS02001748YS02001751 CONDUIT    696.58     0  01:36      1.93    0.35    1.00
  YS02001751YS02001754 CONDUIT    697.16     0  01:36      1.58    0.34    1.00
  YS02001754YS02001757 CONDUIT    698.17     0  01:36      0.89    0.28    1.00
  YS02001757CaochengTiaoxuchi CONDUIT   3611.54     0  01:37      4.68    1.56    1.00
  YS02001759YS02001757 CONDUIT   1546.53     0  01:36      1.97    1.10    1.00
  YS02001762YS02001759 CONDUIT    766.39     0  01:36      0.98    0.88    1.00
  YS02001765YS02001762 CONDUIT    766.52     0  01:36      0.98    0.72    1.00
  YS02001767YS02001765 CONDUIT    767.95     0  01:36      0.98    0.97    1.00
  YS02001770YS02001767 CONDUIT    768.29     0  01:36      0.98    3.04    1.00
  YS02001774YS02001770 CONDUIT    767.98     0  01:39      0.98    0.49    1.00
  YS02001779YS02001774 CONDUIT    767.53     0  01:39      0.98    0.39    1.00
  YS02001783YS02001784 CONDUIT   1171.04     0  01:37      2.33    1.61    1.00
  YS02001784YS02001785 CONDUIT   1171.88     0  01:36      2.33    2.73    1.00
  YS02001786YS02001788 CONDUIT   1172.83     0  01:36      2.51    2.26    0.89
  YS02001788YS02001790 CONDUIT   1184.84     0  01:36      2.76    0.87    0.84
  YS02001790YS02001791 CONDUIT   1287.77     0  01:39      3.42    1.40    0.71
  YS02001791YS02001793 CONDUIT   1260.26     0  01:39      6.77    0.54    0.43
  YS02001793JiankangQianchi CONDUIT   1306.27     0  01:40      2.60    0.10    0.64
  YS02001882YS02001884 CONDUIT     81.93     0  01:34      0.17    0.09    1.00
  YS02001884YS02001887 CONDUIT    154.26     0  01:34      0.20    0.21    1.00
  YS02001887YS02001890 CONDUIT   1020.31     0  01:38      1.30    1.75    1.00
  YS02001890YS02001895 CONDUIT    601.78     0  01:35      0.77    0.28    1.00
  YS02001895YS02001898 CONDUIT    602.80     0  01:35      0.77    1.05    1.00
  YS02001898YS02001901 CONDUIT    604.80     0  01:34      0.77    0.39    1.00
  YS02001901YS02001904 CONDUIT    605.99     0  01:34      0.77    0.94    1.00
  YS02001904YS02001907 CONDUIT    607.72     0  01:34      0.77    0.21    1.00
  YS02001907YS02006553 CONDUIT    798.01     0  02:03      0.89    0.94    1.00
  YS02001910YS02001907 CONDUIT   1685.11     0  01:40      2.15    0.95    1.00
  YS02001915YS02001910 CONDUIT   1684.44     0  01:40      2.14    0.84    1.00
  YS02001918YS02001915 CONDUIT    756.18     0  01:35      0.97    0.42    1.00
  YS02001920YS02001918 CONDUIT    734.61     0  01:35      0.94    0.71    1.00
  YS02001923YS02001920 CONDUIT    759.07     0  01:35      1.03    0.34    1.00
  YS02001926YS02001923 CONDUIT    995.95     0  01:35      1.43    1.42    1.00
  YS02001929YS02001926 CONDUIT    604.36     0  01:35      1.23    0.29    1.00
  YS02006553YS02006556 CONDUIT    797.20     0  02:03      1.02    0.68    1.00
  YS02006556YS02006558 CONDUIT    796.81     0  02:06      1.01    0.63    1.00
  YS02006558YS02006561 CONDUIT   1171.75     0  01:37      4.14    2.59    1.00
  YS02006561YS02001783 CONDUIT   1170.59     0  01:36      2.33    0.61    1.00
  YS02163301YS02001633 CONDUIT    874.30     0  01:34      1.11    0.82    1.00
  YS02163601YS02164001 CONDUIT   1419.54     0  01:34      1.81    1.26    1.00
  YS02164001YS02001641 CONDUIT   1418.36     0  01:34      1.81    1.94    1.00
  YSB1154YSB6556       CONDUIT    692.99     0  02:25      1.80    1.25    1.00
  YSB1171HS02004479    CONDUIT    379.80     0  02:10      0.76    0.25    1.00
  YSB1174YSB1171       CONDUIT    585.67     0  02:25      1.52    0.90    1.00
  YSB6556YSB1171       CONDUIT    639.83     0  02:26      1.66    0.66    1.00
  CC-R1                PUMP       683.00     0  00:00              1.00
  CC-R2                PUMP       683.00     0  00:00              1.00
  CC-S1                PUMP       200.00     0  00:00              1.00
  CC-S2                PUMP       200.00     0  00:00              1.00
  JK-R1                PUMP      1000.00     0  00:00              1.00
  JK-R2                PUMP      1000.00     0  00:00              1.00
  JK-S                 PUMP       300.00     0  00:00              1.00
  XR-1                 PUMP        95.00     0  00:00              1.00
  XR-2                 PUMP        95.00     0  00:00              1.00
  XR-3                 PUMP        95.00     0  00:00              1.00
  XR-4                 PUMP        95.00     0  00:00              1.00
  
  
  ***************************
  Flow Classification Summary
  ***************************
  
  -------------------------------------------------------------------------------------
                      Adjusted    ---------- Fraction of Time in Flow Class ---------- 
                       /Actual         Up    Down  Sub   Sup   Up    Down  Norm  Inlet 
  Conduit               Length    Dry  Dry   Dry   Crit  Crit  Crit  Crit  Ltd   Ctrl  
  -------------------------------------------------------------------------------------
  1                       1.00   0.00  0.00  0.00  0.00  1.00  0.00  0.00  0.36  0.00
  HS02004478WS02006287    1.00   0.10  0.00  0.00  0.61  0.29  0.00  0.00  0.57  0.00
  HS02004479HS02004480    1.00   0.04  0.00  0.00  0.96  0.00  0.00  0.00  0.11  0.00
  HS02004480HS02004478    1.00   0.09  0.00  0.00  0.56  0.00  0.00  0.35  0.00  0.00
  HS02004770HS02004777    1.00   0.00  0.09  0.00  0.91  0.00  0.00  0.00  0.02  0.00
  HS02004777HS02004785    1.00   0.00  0.00  0.00  1.00  0.00  0.00  0.00  0.11  0.00
  HS02004785HS02004788    1.00   0.00  0.00  0.00  1.00  0.00  0.00  0.00  0.00  0.00
  HS02004788HS02004792    1.00   0.00  0.00  0.00  0.99  0.01  0.00  0.00  0.86  0.00
  HS02004792HS02004799    1.00   0.00  0.00  0.00  0.99  0.01  0.00  0.00  0.81  0.00
  HS02004799HS02004480    1.00   0.00  0.04  0.00  0.90  0.00  0.06  0.00  0.00  0.00
  HS02004802HS02004478    1.00   0.09  0.00  0.00  0.91  0.00  0.00  0.00  0.02  0.00
  HS02004807HS02004802    1.00   0.09  0.00  0.00  0.90  0.00  0.00  0.01  0.00  0.00
  HS02004817HS02004807    1.00   0.00  0.09  0.00  0.91  0.00  0.00  0.00  0.01  0.00
  HS02004817HS02004824    1.00   0.00  0.00  0.00  1.00  0.00  0.00  0.00  0.77  0.00
  HS02004824HS02004830    1.00   0.00  0.00  0.00  1.00  0.00  0.00  0.00  0.01  0.00
  HS02004830HS02004837    1.00   0.00  0.00  0.00  1.00  0.00  0.00  0.00  0.83  0.00
  HS02004837HS02004842    1.00   0.00  0.00  0.00  1.00  0.00  0.00  0.00  0.11  0.00
  HS02004842HS02004848    1.00   0.00  0.09  0.00  0.91  0.00  0.00  0.00  0.52  0.00
  HS02004848HS02004852    1.00   0.09  0.00  0.00  0.91  0.00  0.00  0.00  0.68  0.00
  HS02004852HS02004856    1.00   0.09  0.00  0.00  0.91  0.00  0.00  0.00  0.63  0.00
  HS02004856HS02004862    1.00   0.00  0.10  0.00  0.90  0.00  0.00  0.00  0.70  0.00
  HS02004862HS02004870    1.00   0.00  0.00  0.00  1.00  0.00  0.00  0.00  0.02  0.00
  HS02004870HS02004876    1.00   0.00  0.00  0.00  0.98  0.01  0.00  0.00  0.81  0.00
  HS02004876HS02004881    1.00   0.02  0.00  0.00  0.73  0.25  0.00  0.00  0.00  0.00
  HS02004881HS02006253    1.00   0.03  0.02  0.00  0.41  0.02  0.00  0.52  0.13  0.00
  HS02004901HS02004770    1.00   0.09  0.00  0.00  0.91  0.00  0.00  0.00  0.00  0.00
  WS02001211WS02001212    1.00   0.00  0.03  0.00  0.97  0.00  0.00  0.00  0.00  0.00
  WS02001212WS02001213    1.00   0.03  0.00  0.00  0.48  0.00  0.49  0.00  0.00  0.00
  WS02001213WS02003059    1.00   0.00  0.00  0.00  0.99  0.00  0.00  0.00  0.00  0.00
  WS02003059WS02003060    1.00   0.00  0.00  0.00  1.00  0.00  0.00  0.00  0.03  0.00
  WS02003060WS02003069    1.00   0.00  0.00  0.00  0.98  0.02  0.00  0.00  0.55  0.00
  WS02003066WSF200        1.00   0.06  0.00  0.00  0.00  0.94  0.00  0.00  0.65  0.00
  WS02003067WS02003066    1.00   0.05  0.00  0.00  0.94  0.00  0.00  0.00  0.00  0.00
  WS02003069WS02003072    1.00   0.00  0.00  0.00  1.00  0.00  0.00  0.00  0.64  0.00
  WS02003072WS02003073    1.00   0.00  0.00  0.00  0.00  0.00  0.00  1.00  0.00  0.00
  WS02004138WS02004139    1.00   0.00  0.01  0.00  0.97  0.01  0.00  0.02  0.98  0.00
  WS02004139WS02001211    1.00   0.00  0.00  0.00  0.99  0.00  0.00  0.00  0.00  0.00
  WS02004401WS02004402    1.00   0.03  0.00  0.00  0.97  0.00  0.00  0.00  0.00  0.00
  WS02004402WS02004403    1.00   0.03  0.00  0.00  0.97  0.00  0.00  0.00  0.00  0.00
  WS02004403WS02004404    1.00   0.00  0.03  0.00  0.97  0.00  0.00  0.00  0.00  0.00
  WS02004404WS02004405    1.00   0.00  0.00  0.00  1.00  0.00  0.00  0.00  0.01  0.00
  WS02004405WS02004406    1.00   0.00  0.00  0.00  1.00  0.00  0.00  0.00  0.00  0.00
  WS02004406WS02004407    1.00   0.00  0.04  0.00  0.96  0.00  0.00  0.00  0.00  0.00
  WS02004407WS02004409    1.00   0.04  0.00  0.00  0.95  0.01  0.00  0.00  0.78  0.00
  WS02004409WS02004410    1.00   0.04  0.00  0.00  0.96  0.00  0.00  0.00  0.00  0.00
  WS02004410WS02004411    1.00   0.04  0.00  0.00  0.96  0.00  0.00  0.00  0.00  0.00
  WS02004411WS02004412    1.00   0.04  0.00  0.00  0.96  0.00  0.00  0.00  0.00  0.00
  WS02004412WS02004413    1.00   0.05  0.00  0.00  0.95  0.00  0.00  0.00  0.00  0.00
  WS02004413WS02003067    1.00   0.05  0.01  0.00  0.00  0.00  0.95  0.00  0.00  0.00
  WS02006109WS02006110    1.00   0.00  0.01  0.00  0.98  0.00  0.01  0.00  0.00  0.00
  WS02006110WS02006113    1.00   0.01  0.01  0.00  0.98  0.00  0.00  0.00  0.00  0.00
  WS02006111WS02006112    1.00   0.02  0.00  0.00  0.97  0.00  0.00  0.00  0.73  0.00
  WS02006112WS02006115    1.00   0.02  0.00  0.00  0.97  0.00  0.00  0.00  0.00  0.00
  WS02006113WS02006111    1.00   0.02  0.00  0.00  0.35  0.63  0.00  0.00  0.09  0.00
  WS02006115WS02006116    1.00   0.03  0.00  0.00  0.97  0.00  0.00  0.01  0.00  0.00
  WS02006116WS02004401    1.00   0.03  0.00  0.00  0.97  0.00  0.00  0.00  0.00  0.00
  WS02006228WS02006109    1.00   0.00  0.00  0.00  1.00  0.00  0.00  0.00  0.00  0.00
  WS02006229WS02006228    1.00   0.00  0.00  0.00  0.99  0.00  0.00  0.01  0.00  0.00
  WS02006230WS02006229    1.00   0.00  0.00  0.00  0.98  0.00  0.00  0.02  0.01  0.00
  WS02006231WS02006230    1.00   0.00  0.00  0.00  0.52  0.00  0.48  0.00  0.00  0.00
  WS02006232WS02006231    1.00   0.00  0.00  0.00  0.99  0.00  0.00  0.00  0.00  0.00
  WS02006234WS02006232    1.00   0.00  0.00  0.00  1.00  0.00  0.00  0.00  0.31  0.00
  WS02006235WS02006234    1.00   0.00  0.00  0.00  0.72  0.00  0.28  0.00  0.00  0.00
  WS02006238WS02006235    1.00   0.00  0.00  0.00  1.00  0.00  0.00  0.00  0.00  0.00
  WS02006239WS02006238    1.00   0.00  0.00  0.00  1.00  0.00  0.00  0.00  0.44  0.00
  WS02006240WS02006239    1.00   0.00  0.00  0.00  0.65  0.00  0.00  0.35  0.00  0.00
  WS02006242WS02006240    1.00   0.00  0.00  0.00  0.98  0.00  0.01  0.00  0.00  0.00
  WS02006243WS02006242    1.00   0.00  0.00  0.00  0.99  0.00  0.00  0.00  0.64  0.00
  WS02006245WS02006243    1.00   0.00  0.00  0.00  0.90  0.00  0.00  0.10  0.00  0.00
  WS02006247WS02006245    1.00   0.00  0.00  0.00  0.99  0.00  0.00  0.01  0.00  0.00
  WS02006248WS02006247    1.00   0.00  0.00  0.00  1.00  0.00  0.00  0.00  0.60  0.00
  WS02006249WS02006248    1.00   0.00  0.00  0.00  0.55  0.00  0.45  0.00  0.00  0.00
  WS02006251WS02006249    1.00   0.00  0.00  0.00  1.00  0.00  0.00  0.00  0.66  0.00
  WS02006252WS02006251    1.00   0.00  0.58  0.00  0.39  0.00  0.03  0.00  0.00  0.00
  WS02006253WS02006251    1.00   0.00  0.00  0.00  0.98  0.00  0.02  0.00  0.00  0.00
  WS02006256WS02006235    1.00   0.00  0.00  0.00  1.00  0.00  0.00  0.00  0.00  0.00
  WS02006280WS02006229    1.00   0.09  0.00  0.00  0.31  0.04  0.00  0.56  0.00  0.00
  WS02006284WS02006280    1.00   0.09  0.00  0.00  0.24  0.02  0.00  0.64  0.00  0.00
  WS02006287WS02006284    1.00   0.08  0.02  0.00  0.51  0.39  0.00  0.00  0.62  0.00
  WSF200WS02003060        1.00   0.00  0.06  0.00  0.48  0.46  0.00  0.00  0.64  0.00
  YS02001580YS02001583    1.00   0.16  0.47  0.00  0.37  0.00  0.00  0.00  0.68  0.00
  YS02001583YS02001586    1.00   0.27  0.27  0.00  0.46  0.00  0.00  0.00  0.68  0.00
  YS02001586YS02001590    1.00   0.09  0.00  0.00  0.63  0.03  0.00  0.26  0.33  0.00
  YS02001590YS02001593    1.00   0.09  0.00  0.00  0.25  0.00  0.66  0.00  0.00  0.00
  YS02001593YS02001596    1.00   0.09  0.00  0.00  0.29  0.01  0.00  0.61  0.02  0.00
  YS02001596YS02001600    1.00   0.09  0.00  0.00  0.37  0.02  0.00  0.52  0.04  0.00
  YS02001600YS02001601    1.00   0.09  0.00  0.00  0.91  0.00  0.00  0.00  0.59  0.00
  YS02001601YS02001602    1.00   0.09  0.00  0.00  0.91  0.00  0.00  0.00  0.00  0.00
  YS02001602YS02001605    1.00   0.09  0.00  0.00  0.91  0.00  0.00  0.00  0.00  0.00
  YS02001605YS02001607    1.00   0.09  0.00  0.00  0.91  0.00  0.00  0.00  0.00  0.00
  YS02001607YS02001610    1.00   0.09  0.00  0.00  0.91  0.00  0.00  0.00  0.01  0.00
  YS02001610YS02001613    1.00   0.09  0.00  0.00  0.91  0.00  0.00  0.00  0.00  0.00
  YS02001613YS02001616    1.00   0.09  0.00  0.00  0.91  0.00  0.00  0.00  0.00  0.00
  YS02001616YS02001619    1.00   0.09  0.00  0.00  0.91  0.00  0.00  0.00  0.00  0.00
  YS02001619YS02001622    1.00   0.09  0.00  0.00  0.91  0.00  0.00  0.00  0.29  0.00
  YS02001622YS02001625    1.00   0.09  0.00  0.00  0.91  0.00  0.00  0.00  0.03  0.00
  YS02001625YS02001629    1.00   0.09  0.03  0.00  0.32  0.00  0.56  0.00  0.00  0.00
  YS02001629YS02163301    1.00   0.10  0.00  0.00  0.90  0.00  0.00  0.00  0.00  0.00
  YS02001633YS02163601    1.00   0.00  0.01  0.00  0.99  0.00  0.00  0.00  0.14  0.00
  YS02001641YS02001644    1.00   0.00  0.01  0.00  0.99  0.00  0.00  0.00  0.00  0.00
  YS02001644YS02001647    1.00   0.00  0.11  0.00  0.89  0.00  0.00  0.00  0.00  0.00
  YS02001647YS02001649    1.00   0.00  0.11  0.00  0.60  0.30  0.00  0.00  0.56  0.00
  YS02001649YS02001757    1.00   0.00  0.00  0.00  0.70  0.30  0.00  0.00  0.46  0.00
  YS02001652YS02001649    1.00   0.00  0.00  0.00  0.98  0.02  0.00  0.00  0.72  0.00
  YS02001655YS02001652    1.00   0.00  0.00  0.00  0.35  0.01  0.00  0.64  0.03  0.00
  YS02001658YS02001655    1.00   0.00  0.09  0.00  0.66  0.25  0.00  0.00  0.65  0.00
  YS02001661YS02001658    1.00   0.09  0.00  0.00  0.50  0.40  0.00  0.00  0.69  0.00
  YS02001664YS02001661    1.00   0.09  0.00  0.00  0.75  0.16  0.00  0.00  0.84  0.00
  YS02001745YS02001748    1.00   0.00  0.00  0.00  0.24  0.01  0.00  0.75  0.05  0.00
  YS02001748YS02001751    1.00   0.00  0.00  0.00  0.80  0.20  0.00  0.00  0.77  0.00
  YS02001751YS02001754    1.00   0.00  0.00  0.00  0.32  0.01  0.00  0.67  0.02  0.00
  YS02001754YS02001757    1.00   0.00  0.00  0.00  1.00  0.00  0.00  0.00  0.79  0.00
  YS02001757CaochengTiaoxuchi    1.00   0.00  0.00  0.00  0.96  0.04  0.00  0.00  0.78  0.00
  YS02001759YS02001757    1.00   0.00  0.00  0.00  1.00  0.00  0.00  0.00  0.61  0.00
  YS02001762YS02001759    1.00   0.00  0.00  0.00  1.00  0.00  0.00  0.00  0.03  0.00
  YS02001765YS02001762    1.00   0.00  0.00  0.00  1.00  0.00  0.00  0.00  0.72  0.00
  YS02001767YS02001765    1.00   0.00  0.00  0.00  1.00  0.00  0.00  0.00  0.00  0.00
  YS02001770YS02001767    1.00   0.00  0.00  0.00  1.00  0.00  0.00  0.00  0.00  0.00
  YS02001774YS02001770    1.00   0.00  0.09  0.00  0.80  0.00  0.10  0.00  0.02  0.00
  YS02001779YS02001774    1.00   0.00  0.00  0.00  1.00  0.00  0.00  0.00  0.76  0.00
  YS02001783YS02001784    1.00   0.00  0.11  0.00  0.89  0.00  0.00  0.00  0.55  0.00
  YS02001784YS02001785    1.00   0.00  0.00  0.00  1.00  0.00  0.00  0.00  0.15  0.00
  YS02001786YS02001788    1.00   0.00  0.00  0.00  0.66  0.34  0.00  0.00  0.00  0.00
  YS02001788YS02001790    1.00   0.00  0.00  0.00  0.18  0.82  0.00  0.00  0.79  0.00
  YS02001790YS02001791    1.00   0.00  0.00  0.00  0.01  0.99  0.00  0.00  0.16  0.00
  YS02001791YS02001793    1.00   0.00  0.00  0.00  0.00  1.00  0.00  0.00  0.01  0.00
  YS02001793JiankangQianchi    1.00   0.00  0.00  0.00  0.91  0.09  0.00  0.00  0.97  0.00
  YS02001882YS02001884    1.00   0.10  0.00  0.00  0.90  0.00  0.00  0.00  0.00  0.00
  YS02001884YS02001887    1.00   0.06  0.03  0.00  0.92  0.00  0.00  0.00  0.00  0.00
  YS02001887YS02001890    1.00   0.00  0.00  0.00  0.96  0.00  0.03  0.00  0.00  0.00
  YS02001890YS02001895    1.00   0.00  0.10  0.00  0.90  0.00  0.00  0.00  0.00  0.00
  YS02001895YS02001898    1.00   0.10  0.00  0.00  0.88  0.00  0.01  0.00  0.00  0.00
  YS02001898YS02001901    1.00   0.10  0.00  0.00  0.90  0.00  0.00  0.00  0.01  0.00
  YS02001901YS02001904    1.00   0.10  0.00  0.00  0.90  0.00  0.00  0.00  0.00  0.00
  YS02001904YS02001907    1.00   0.00  0.10  0.00  0.90  0.00  0.00  0.00  0.00  0.00
  YS02001907YS02006553    1.00   0.00  0.02  0.00  0.97  0.00  0.00  0.00  0.00  0.00
  YS02001910YS02001907    1.00   0.00  0.00  0.00  0.97  0.00  0.00  0.03  0.12  0.00
  YS02001915YS02001910    1.00   0.00  0.00  0.00  0.97  0.03  0.00  0.00  0.13  0.00
  YS02001918YS02001915    1.00   0.00  0.00  0.00  0.97  0.02  0.00  0.00  0.73  0.00
  YS02001920YS02001918    1.00   0.00  0.00  0.00  1.00  0.00  0.00  0.00  0.00  0.00
  YS02001923YS02001920    1.00   0.00  0.00  0.00  1.00  0.00  0.00  0.00  0.91  0.00
  YS02001926YS02001923    1.00   0.00  0.06  0.00  0.14  0.00  0.80  0.00  0.00  0.00
  YS02001929YS02001926    1.00   0.00  0.09  0.00  0.91  0.00  0.00  0.00  0.80  0.00
  YS02006553YS02006556    1.00   0.01  0.00  0.00  0.99  0.00  0.00  0.00  0.03  0.00
  YS02006556YS02006558    1.00   0.00  0.00  0.00  1.00  0.00  0.00  0.00  0.00  0.00
  YS02006558YS02006561    1.00   0.11  0.00  0.00  0.13  0.76  0.00  0.00  0.18  0.00
  YS02006561YS02001783    1.00   0.11  0.00  0.00  0.18  0.71  0.00  0.00  0.67  0.00
  YS02163301YS02001633    1.00   0.00  0.10  0.00  0.90  0.00  0.00  0.00  0.00  0.00
  YS02163601YS02164001    1.00   0.00  0.07  0.00  0.93  0.00  0.00  0.00  0.00  0.00
  YS02164001YS02001641    1.00   0.01  0.06  0.00  0.93  0.00  0.00  0.00  0.05  0.00
  YSB1154YSB6556          1.00   0.09  0.00  0.00  0.91  0.00  0.00  0.00  0.01  0.00
  YSB1171HS02004479       1.00   0.04  0.00  0.00  0.95  0.00  0.00  0.01  0.09  0.00
  YSB1174YSB1171          1.00   0.05  0.02  0.00  0.93  0.00  0.00  0.00  0.00  0.00
  YSB6556YSB1171          1.00   0.04  0.04  0.00  0.91  0.00  0.00  0.00  0.00  0.00
  
  
  *************************
  Conduit Surcharge Summary
  *************************
  
  ----------------------------------------------------------------------------
                                                           Hours        Hours 
                         --------- Hours Full --------   Above Full   Capacity
  Conduit                Both Ends  Upstream  Dnstream   Normal Flow   Limited
  ----------------------------------------------------------------------------
  HS02004478WS02006287        0.76      0.76      0.98      0.01         0.01
  HS02004479HS02004480        0.98      0.98      1.00      0.01         0.01
  HS02004480HS02004478        0.88      0.97      0.88      1.98         0.88
  HS02004770HS02004777        0.84      0.84      0.85      0.15         0.09
  HS02004777HS02004785        0.79      0.79      0.85      0.01         0.01
  HS02004785HS02004788        0.78      0.79      0.78      1.63         0.65
  HS02004788HS02004792        0.78      0.78      0.93      0.01         0.01
  HS02004792HS02004799        0.93      0.93      1.11      0.01         0.01
  HS02004799HS02004480        0.97      0.97      1.11      1.22         0.01
  HS02004802HS02004478        0.91      0.91      1.00      0.27         0.01
  HS02004807HS02004802        0.96      0.96      0.99      0.46         0.47
  HS02004817HS02004807        0.96      0.96      1.59      0.01         0.01
  HS02004817HS02004824        0.78      0.78      1.59      0.01         0.01
  HS02004824HS02004830        0.76      0.76      0.78      0.01         0.01
  HS02004830HS02004837        0.70      0.70      0.76      0.01         0.01
  HS02004837HS02004842        0.70      0.70      0.87      0.01         0.01
  HS02004842HS02004848        0.67      0.67      0.87      0.01         0.01
  HS02004848HS02004852        0.67      0.67      0.69      0.01         0.01
  HS02004852HS02004856        0.69      0.69      0.72      0.01         0.01
  HS02004856HS02004862        0.69      0.69      0.73      0.01         0.01
  HS02004862HS02004870        0.73      0.73      0.75      0.27         0.27
  HS02004870HS02004876        0.75      0.75      0.83      0.01         0.01
  HS02004876HS02004881        0.81      0.83      0.81      1.80         0.81
  HS02004881HS02006253        0.81      0.81      1.94      0.01         0.01
  HS02004901HS02004770        0.84      0.84      0.85      0.20         0.01
  WS02003072WS02003073        0.01      0.01      0.01      2.40         0.01
  WS02004401WS02004402        1.82      1.82      1.86      1.64         1.64
  WS02004402WS02004403        1.86      1.86      1.86      1.81         1.80
  WS02004403WS02004404        1.86      1.86      2.01      0.01         0.06
  WS02004404WS02004405        2.00      2.01      2.00      3.22         2.00
  WS02004405WS02004406        1.97      2.00      1.97      2.10         1.97
  WS02004406WS02004407        0.09      0.09      1.97      0.01         0.01
  WS02004407WS02004409        0.09      0.09      1.44      0.01         0.01
  WS02004409WS02004410        1.38      1.44      1.38      1.71         1.38
  WS02004410WS02004411        1.28      1.38      1.28      1.77         1.28
  WS02004411WS02004412        1.16      1.28      1.16      1.81         1.16
  WS02004412WS02004413        1.16      1.16      1.62      0.01         0.01
  WS02004413WS02003067        0.01      0.01      1.62      0.01         0.01
  WS02006109WS02006110        2.08      2.08      2.24      2.08         0.01
  WS02006110WS02006113        1.59      1.59      2.23      0.39         0.01
  WS02006111WS02006112        1.57      1.57      2.34      0.01         0.01
  WS02006112WS02006115        1.72      1.72      2.12      0.01         0.01
  WS02006113WS02006111        1.58      1.59      1.58      1.63         1.58
  WS02006115WS02006116        1.73      1.73      1.74      1.70         1.69
  WS02006116WS02004401        1.81      1.81      1.82      1.78         1.76
  WS02006228WS02006109        2.21      2.24      2.21      2.62         2.21
  WS02006229WS02006228        2.21      2.22      2.21      2.36         2.21
  WS02006230WS02006229        2.26      2.26      2.26      3.13         0.74
  WS02006231WS02006230        2.01      2.01      2.02      2.72         1.42
  WS02006232WS02006231        2.02      2.02      2.09      0.01         0.18
  WS02006234WS02006232        2.03      2.03      2.09      0.01         0.01
  WS02006235WS02006234        2.02      2.02      2.03      2.41         1.40
  WS02006238WS02006235        2.04      2.04      2.05      0.01         0.57
  WS02006239WS02006238        2.03      2.03      2.04      1.60         0.31
  WS02006240WS02006239        2.01      2.01      2.01      1.59         0.31
  WS02006242WS02006240        2.00      2.01      2.02      1.74         1.30
  WS02006243WS02006242        1.99      1.99      2.01      0.01         0.01
  WS02006245WS02006243        1.97      1.97      1.98      0.34         0.26
  WS02006247WS02006245        1.96      1.97      1.97      1.97         0.46
  WS02006248WS02006247        1.96      1.96      1.97      0.01         0.01
  WS02006249WS02006248        1.96      1.96      1.96      0.46         0.01
  WS02006251WS02006249        1.96      1.96      1.96      2.05         1.93
  WS02006252WS02006251        2.07      2.07      2.07      1.62         0.19
  WS02006253WS02006251        1.95      1.96      1.95      1.14         0.01
  WS02006256WS02006235        2.78      2.79      4.83      0.71         0.01
  WS02006280WS02006229        1.17      1.17      1.32      0.01         0.01
  WS02006284WS02006280        1.02      1.02      1.14      0.01         0.01
  WS02006287WS02006284        0.88      0.88      1.03      0.52         0.53
  YS02001580YS02001583        0.80      0.80      0.87      0.01         0.01
  YS02001583YS02001586        0.81      0.81      0.98      0.01         0.01
  YS02001586YS02001590        0.99      0.99      1.06      0.01         0.01
  YS02001590YS02001593        1.06      1.06      1.08      1.14         0.01
  YS02001593YS02001596        1.07      1.07      1.18      0.01         0.01
  YS02001596YS02001600        1.23      1.23      1.35      0.01         0.01
  YS02001600YS02001601        1.42      1.42      1.68      0.01         0.01
  YS02001601YS02001602        1.60      1.60      1.70      1.34         0.01
  YS02001602YS02001605        1.56      1.56      1.60      2.35         0.01
  YS02001605YS02001607        1.52      1.56      1.52      1.65         1.52
  YS02001607YS02001610        1.07      1.07      1.10      0.01         0.01
  YS02001610YS02001613        1.06      1.06      1.10      0.01         0.01
  YS02001613YS02001616        1.02      1.02      1.06      0.01         0.01
  YS02001616YS02001619        1.00      1.00      1.02      0.01         0.06
  YS02001619YS02001622        1.00      1.00      1.00      1.03         0.91
  YS02001622YS02001625        1.00      1.00      1.20      0.01         0.01
  YS02001625YS02001629        0.95      0.95      1.20      0.01         0.01
  YS02001629YS02163301        1.20      1.20      1.21      0.01         0.12
  YS02001633YS02163601        1.24      1.24      1.27      0.30         0.29
  YS02001641YS02001644        1.17      1.20      1.17      1.72         1.15
  YS02001644YS02001647        0.96      0.96      1.17      0.03         0.01
  YS02001647YS02001649        0.96      0.96      1.12      0.01         0.01
  YS02001649YS02001757        1.12      1.12      1.21      0.04         0.03
  YS02001652YS02001649        0.92      0.92      1.12      0.01         0.01
  YS02001655YS02001652        0.66      0.66      0.89      0.01         0.01
  YS02001658YS02001655        0.33      0.33      0.66      0.01         0.01
  YS02001661YS02001658        0.10      0.10      0.33      0.01         0.01
  YS02001664YS02001661        0.01      0.01      0.14      0.01         0.01
  YS02001745YS02001748        0.01      0.01      0.24      0.01         0.01
  YS02001748YS02001751        0.29      0.29      0.46      0.01         0.01
  YS02001751YS02001754        0.46      0.46      0.78      0.01         0.01
  YS02001754YS02001757        0.84      0.84      1.21      0.01         0.01
  YS02001757CaochengTiaoxuchi        1.15      1.21      1.64      0.44         0.36
  YS02001759YS02001757        1.10      1.10      1.21      0.07         0.06
  YS02001762YS02001759        1.06      1.06      1.10      0.01         0.02
  YS02001765YS02001762        1.01      1.01      1.06      0.01         0.01
  YS02001767YS02001765        0.96      0.96      1.01      0.01         0.02
  YS02001770YS02001767        0.96      0.96      0.96      0.66         0.63
  YS02001774YS02001770        0.93      0.93      1.04      0.01         0.01
  YS02001779YS02001774        0.75      0.75      1.04      0.01         0.01
  YS02001783YS02001784        0.65      0.68      0.65      0.82         0.65
  YS02001784YS02001785        0.54      0.65      0.54      1.11         0.54
  YS02001786YS02001788        0.01      0.54      0.01      0.93         0.01
  YS02001790YS02001791        0.01      0.01      0.01      0.64         0.01
  YS02001793JiankangQianchi        0.01      0.01      7.69      0.01         0.01
  YS02001882YS02001884        0.61      0.61      0.62      0.01         0.01
  YS02001884YS02001887        0.65      0.65      0.66      0.01         0.01
  YS02001887YS02001890        0.68      0.68      0.69      0.19         0.01
  YS02001890YS02001895        0.60      0.60      0.71      0.01         0.01
  YS02001895YS02001898        0.60      0.60      0.61      0.01         0.01
  YS02001898YS02001901        0.61      0.61      0.65      0.01         0.01
  YS02001901YS02001904        0.64      0.64      0.65      0.01         0.01
  YS02001904YS02001907        0.64      0.64      0.92      0.01         0.01
  YS02001907YS02006553        1.12      1.12      1.20      0.01         0.01
  YS02001910YS02001907        0.71      0.71      0.88      0.01         0.01
  YS02001915YS02001910        0.61      0.61      0.71      0.01         0.01
  YS02001918YS02001915        0.52      0.52      0.61      0.01         0.01
  YS02001920YS02001918        0.52      0.52      0.54      0.01         0.01
  YS02001923YS02001920        0.48      0.48      0.54      0.01         0.01
  YS02001926YS02001923        0.19      0.19      0.22      0.01         0.01
  YS02001929YS02001926        0.02      0.02      0.22      0.01         0.01
  YS02006553YS02006556        0.80      0.80      0.91      0.01         0.01
  YS02006556YS02006558        0.84      0.84      0.94      0.01         0.01
  YS02006558YS02006561        0.56      0.79      0.56      1.05         0.56
  YS02006561YS02001783        0.48      0.48      0.68      0.01         0.01
  YS02163301YS02001633        1.21      1.21      1.25      0.01         0.01
  YS02163601YS02164001        1.20      1.20      1.27      0.03         0.01
  YS02164001YS02001641        1.20      1.20      1.20      0.81         0.75
  YSB1154YSB6556              1.06      1.06      1.26      0.09         0.01
  YSB1171HS02004479           0.92      0.92      1.26      0.01         0.01
  YSB1174YSB1171              1.16      1.16      1.50      0.01         0.01
  YSB6556YSB1171              1.06      1.06      1.66      0.01         0.01
  
  
  ***************
  Pumping Summary
  ***************
  
  ---------------------------------------------------------------------------------------------------------
                                                  Min       Avg       Max     Total     Power    % Time Off
                        Percent   Number of      Flow      Flow      Flow    Volume     Usage    Pump Curve
  Pump                 Utilized   Start-Ups       LPS       LPS       LPS  10^6 ltr     Kw-hr    Low   High
  ---------------------------------------------------------------------------------------------------------
  CC-R1                   24.85           2      0.00    683.00    683.00     4.889     91.70    0.0   20.0
  CC-R2                   23.92           2      0.00    683.00    683.00     4.705     88.30    0.0   20.8
  CC-S1                   26.12           2      0.00    200.00    200.00     1.505     10.07    0.0    0.0
  CC-S2                   25.50           2      0.00    200.00    200.00     1.469      9.84    0.0    0.0
  JK-R1                    9.14           5      0.00   1000.00   1000.00     2.633     25.30    0.0    0.0
  JK-R2                    0.16           1      0.00   1000.00   1000.00     0.047      0.36    0.0    0.0
  JK-S                    23.32           3      0.00    300.00    300.00     2.015     33.03    0.0    0.0
  XR-1                    97.91           2      0.00     95.00     95.00     2.679      9.62    0.0    0.0
  XR-2                    93.94           2      0.00     95.00     95.00     2.570      8.78    0.0    0.0
  XR-3                     0.00           1      0.00     95.00     95.00     0.000      0.00    0.0    0.0
  XR-4                     0.00           1      0.00     95.00     95.00     0.000      0.00    0.0    0.0
  

  Analysis begun on:  Thu Jul 20 17:18:33 2023
  Analysis ended on:  Thu Jul 20 17:18:54 2023
  Total elapsed time: 00:00:21