
  OWA STORM WATER MANAGEMENT MODEL - VERSION v5.1.14 (OWA 2022-07-31)
  --------------------------------------------------------------

  WARNING 04: minimum elevation drop used for Conduit WS02004404WS02004405
  WARNING 03: negative offset ignored for Link YS02001904YS02001907
  
  *********************************************************
  NOTE: The summary statistics displayed in this report are
  based on results found at every computational time step,  
  not just on results from each reporting time step.
  *********************************************************
  
  ****************
  Analysis Options
  ****************
  Flow Units ............... LPS
  Process Models:
    Rainfall/Runoff ........ YES
    RDII ................... NO
    Snowmelt ............... NO
    Groundwater ............ NO
    Flow Routing ........... YES
    Ponding Allowed ........ NO
    Water Quality .......... NO
  Infiltration Method ...... HORTON
  Flow Routing Method ...... DYNWAVE
  Surcharge Method ......... EXTRAN
  Starting Date ............ 08/28/2015 08:00:00
  Ending Date .............. 08/28/2015 16:00:00
  Antecedent Dry Days ...... 8.0
  Report Time Step ......... 00:01:00
  Wet Time Step ............ 00:01:00
  Dry Time Step ............ 00:01:00
  Routing Time Step ........ 30.00 sec
  Variable Time Step ....... YES
  Maximum Trials ........... 8
  Number of Threads ........ 4
  Head Tolerance ........... 0.001500 m
  
  
  **************************        Volume         Depth
  Runoff Quantity Continuity     hectare-m            mm
  **************************     ---------       -------
  Total Precipitation ......         5.628        92.907
  Evaporation Loss .........         0.000         0.000
  Infiltration Loss ........         0.249         4.116
  Surface Runoff ...........         5.319        87.804
  Final Storage ............         0.061         1.008
  Continuity Error (%) .....        -0.022
  
  
  **************************        Volume        Volume
  Flow Routing Continuity        hectare-m      10^6 ltr
  **************************     ---------     ---------
  Dry Weather Inflow .......         0.630         6.296
  Wet Weather Inflow .......         5.319        53.189
  Groundwater Inflow .......         0.000         0.000
  RDII Inflow ..............         0.000         0.000
  External Inflow ..........         0.105         1.045
  External Outflow .........         2.818        28.180
  Flooding Loss ............         3.181        31.812
  Evaporation Loss .........         0.000         0.000
  Exfiltration Loss ........         0.000         0.000
  Initial Stored Volume ....         0.303         3.031
  Final Stored Volume ......         0.363         3.633
  Continuity Error (%) .....        -0.100
  
  
  *************************
  Highest Continuity Errors
  *************************
  Node YS02001583 (-6.12%)
  Node YS02001884 (5.17%)
  Node HS02004842 (1.32%)
  
  
  ***************************
  Time-Step Critical Elements
  ***************************
  Link WS02006280WS02006229 (51.07%)
  Link YS02001791YS02001793 (12.39%)
  Link WS02006238WS02006235 (9.98%)
  Link WS02004404WS02004405 (8.02%)
  Link YS02006556YS02006558 (2.52%)
  
  
  ********************************
  Highest Flow Instability Indexes
  ********************************
  Link WS02006238WS02006235 (30)
  Link WS02004404WS02004405 (27)
  Link WS02006229WS02006228 (27)
  Link WS02006256WS02006235 (26)
  Link WS02006113WS02006111 (26)
  
  
  *************************
  Routing Time Step Summary
  *************************
  Minimum Time Step           :     0.01 sec
  Average Time Step           :     2.64 sec
  Maximum Time Step           :     6.46 sec
  Percent in Steady State     :    -0.00
  Average Iterations per Step :     3.60
  Percent Not Converging      :    13.27
  
  
  ***************************
  Subcatchment Runoff Summary
  ***************************
  
  ------------------------------------------------------------------------------------------------------------------------------
                            Total      Total      Total      Total     Imperv       Perv      Total       Total     Peak  Runoff
                           Precip      Runon       Evap      Infil     Runoff     Runoff     Runoff      Runoff   Runoff   Coeff
  Subcatchment                 mm         mm         mm         mm         mm         mm         mm    10^6 ltr      LPS
  ------------------------------------------------------------------------------------------------------------------------------
  sub0                      92.91       0.00       0.00       1.03      85.16       5.48      90.64        0.07    54.03   0.976
  sub1                      92.91       0.00       0.00       1.76      81.45       8.46      89.91        0.60   374.90   0.968
  sub10                     92.91       0.00       0.00       1.24      84.20       6.19      90.39        1.00   635.35   0.973
  sub11                     92.91       0.00       0.00       1.22      84.22       6.21      90.43        1.05   695.97   0.973
  sub12                     92.91       0.00       0.00       1.99      79.66      10.09      89.76        0.78   558.48   0.966
  sub14                     92.91       0.00       0.00       1.40      83.30       6.97      90.26        0.86   559.41   0.972
  sub15                     92.91       0.00       0.00       5.46      64.07      22.41      86.48        1.49   891.02   0.931
  sub16                     92.91       0.00       0.00       5.65      61.35      25.01      86.36        0.90   587.11   0.930
  sub17                     92.91       0.00       0.00       5.51      62.26      24.23      86.48        0.74   478.24   0.931
  sub2                      92.91       0.00       0.00       7.82      57.63      26.56      84.19        0.78   399.53   0.906
  sub22                     92.91       0.00       0.00       8.28      52.18      31.67      83.85        5.30  3006.60   0.903
  sub23                     92.91       0.00       0.00       6.75      57.68      27.63      85.31        4.07  2462.16   0.918
  sub3                      92.91       0.00       0.00       8.52      57.59      25.86      83.45        1.88   870.07   0.898
  sub4                      92.91       0.00       0.00       1.96      81.27       8.26      89.53        1.87   945.42   0.964
  sub5                      92.91       0.00       0.00       1.08      85.11       5.42      90.53        1.03   644.07   0.974
  sub60                     92.91       0.00       0.00       1.87      80.56       9.28      89.84        1.18   788.83   0.967
  sub61                     92.91       0.00       0.00       2.72      75.99      13.08      89.07        1.63  1097.28   0.959
  sub62                     92.91       0.00       0.00       1.25      84.19       6.19      90.38        2.48  1561.16   0.973
  sub63                     92.91       0.00       0.00       5.01      65.00      21.93      86.93        1.97  1258.43   0.936
  sub64                     92.91       0.00       0.00       2.53      77.77      11.40      89.17        2.14  1287.79   0.960
  sub65                     92.91       0.00       0.00       2.19      79.58       9.89      89.47        2.46  1440.00   0.963
  sub66                     92.91       0.00       0.00       6.22      64.89      20.72      85.61        3.99  1946.06   0.921
  sub67                     92.91       0.00       0.00       1.20      84.24       6.24      90.47        1.68  1185.65   0.974
  sub68                     92.91       0.00       0.00       2.25      78.72      10.76      89.48        2.46  1597.67   0.963
  sub69                     92.91       0.00       0.00       2.03      78.86      11.91      90.78        3.36  1912.69   0.977
  sub7                      92.91       0.00       0.00       1.37      83.31       6.99      90.30        0.30   205.70   0.972
  sub70                     92.91       0.00       0.00       6.78      61.16      24.81      85.97        2.48  1092.32   0.925
  sub71                     92.91       0.00       0.00       1.28      84.15       6.15      90.30        2.36  1388.55   0.972
  sub72                     92.91       0.00       0.00       1.14      85.00       5.36      90.37        1.24   678.94   0.973
  sub8                      92.91       0.00       0.00       1.39      83.30       6.97      90.27        0.58   379.23   0.972
  sub9                      92.91       0.00       0.00       1.39      83.30       6.97      90.27        0.43   283.93   0.972
  
  
  ******************
  Node Depth Summary
  ******************
  
  ---------------------------------------------------------------------------------
                                 Average  Maximum  Maximum  Time of Max    Reported
                                   Depth    Depth      HGL   Occurrence   Max Depth
  Node                 Type       Meters   Meters   Meters  days hr:min      Meters
  ---------------------------------------------------------------------------------
  HS02004478           JUNCTION     0.33     1.59    10.82     0  01:57        1.58
  HS02004479           JUNCTION     0.41     1.69    10.90     0  01:52        1.67
  HS02004480           JUNCTION     0.37     1.67    10.91     0  01:52        1.63
  HS02004770           JUNCTION     0.36     1.42    11.25     0  01:49        1.42
  HS02004777           JUNCTION     0.39     1.48    11.28     0  01:49        1.46
  HS02004785           JUNCTION     0.28     1.49    11.39     0  01:49        1.37
  HS02004788           JUNCTION     0.24     1.42    11.32     0  01:49        1.38
  HS02004792           JUNCTION     0.32     1.60    11.12     0  01:50        1.60
  HS02004799           JUNCTION     0.44     1.76    10.97     0  01:52        1.76
  HS02004802           JUNCTION     0.43     1.80    10.93     0  01:57        1.80
  HS02004807           JUNCTION     0.41     1.92    11.09     0  01:57        1.92
  HS02004817           JUNCTION     0.72     2.41    11.26     0  02:00        2.41
  HS02004824           JUNCTION     0.28     2.01    11.41     0  01:58        2.01
  HS02004830           JUNCTION     0.28     2.01    11.48     0  01:52        1.99
  HS02004837           JUNCTION     0.24     1.96    11.54     0  01:52        1.93
  HS02004842           JUNCTION     0.53     2.22    11.49     0  01:52        2.22
  HS02004848           JUNCTION     0.22     2.06    11.66     0  01:52        1.92
  HS02004852           JUNCTION     0.23     2.07    11.58     0  01:52        1.98
  HS02004856           JUNCTION     0.29     2.04    11.46     0  02:02        2.03
  HS02004862           JUNCTION     0.24     2.00    11.38     0  01:58        2.00
  HS02004870           JUNCTION     0.24     2.05    11.34     0  02:01        2.05
  HS02004876           JUNCTION     0.30     2.16    11.19     0  02:01        2.16
  HS02004881           JUNCTION     0.22     1.92    10.95     0  02:01        1.92
  HS02004901           JUNCTION     0.37     1.42    11.24     0  01:49        1.42
  WS02001211           JUNCTION     0.65     0.83     5.67     0  02:04        0.83
  WS02001212           JUNCTION     0.40     0.59     5.66     0  02:04        0.59
  WS02001213           JUNCTION     0.62     0.89     5.65     0  02:05        0.89
  WS02003059           JUNCTION     0.69     0.96     5.64     0  02:04        0.96
  WS02003060           JUNCTION     0.41     0.70     5.64     0  02:03        0.70
  WS02003066           JUNCTION     0.25     0.47     6.02     0  02:01        0.47
  WS02003067           JUNCTION     0.58     0.91     6.23     0  02:00        0.90
  WS02003069           JUNCTION     0.46     0.80     5.38     0  02:03        0.80
  WS02003072           JUNCTION     0.52     0.83     5.20     0  02:04        0.83
  WS02003073           JUNCTION     0.32     0.53     4.59     0  02:04        0.53
  WS02004138           JUNCTION     0.13     0.14     7.39     0  00:29        0.14
  WS02004139           JUNCTION     0.59     0.76     5.67     0  02:05        0.76
  WS02004401           JUNCTION     0.87     2.05     8.05     0  02:01        2.04
  WS02004402           JUNCTION     0.88     1.99     7.95     0  02:01        1.97
  WS02004403           JUNCTION     0.88     1.91     7.84     0  02:01        1.89
  WS02004404           JUNCTION     0.93     1.90     7.75     0  02:01        1.89
  WS02004405           JUNCTION     0.92     1.85     7.70     0  02:01        1.84
  WS02004406           JUNCTION     0.90     1.73     7.56     0  02:01        1.70
  WS02004407           JUNCTION     0.32     1.05     7.37     0  02:01        1.05
  WS02004409           JUNCTION     0.62     1.47     7.24     0  02:01        1.47
  WS02004410           JUNCTION     0.61     1.36     7.08     0  02:00        1.36
  WS02004411           JUNCTION     0.61     1.26     6.94     0  02:00        1.26
  WS02004412           JUNCTION     0.60     1.15     6.79     0  02:00        1.14
  WS02004413           JUNCTION     0.73     1.17     6.64     0  02:00        1.17
  WS02006109           JUNCTION     1.15     2.64     9.26     0  01:49        2.64
  WS02006110           JUNCTION     1.06     2.46     9.04     0  02:01        2.45
  WS02006111           JUNCTION     0.55     1.93     8.64     0  02:01        1.92
  WS02006112           JUNCTION     1.11     2.61     8.49     0  02:01        2.60
  WS02006113           JUNCTION     0.63     1.95     8.84     0  02:01        1.94
  WS02006115           JUNCTION     0.81     2.18     8.32     0  02:01        2.17
  WS02006116           JUNCTION     0.87     2.16     8.20     0  02:01        2.15
  WS02006228           JUNCTION     1.24     3.03     9.68     0  01:52        3.02
  WS02006229           JUNCTION     1.26     3.23     9.92     0  01:52        3.22
  WS02006230           JUNCTION     1.16     2.65     9.39     0  01:45        2.65
  WS02006231           JUNCTION     0.86     2.19     9.31     0  01:52        2.19
  WS02006232           JUNCTION     0.94     2.18     9.22     0  01:45        2.18
  WS02006234           JUNCTION     0.82     1.96     9.12     0  01:43        1.96
  WS02006235           JUNCTION     0.83     1.94     9.10     0  02:18        1.94
  WS02006238           JUNCTION     0.85     1.94     9.08     0  01:38        1.93
  WS02006239           JUNCTION     0.78     1.79     9.00     0  01:38        1.79
  WS02006240           JUNCTION     0.73     1.65     8.95     0  02:43        1.65
  WS02006242           JUNCTION     0.75     1.55     8.82     0  01:38        1.55
  WS02006243           JUNCTION     0.64     1.38     8.80     0  02:43        1.38
  WS02006245           JUNCTION     0.61     1.30     8.78     0  02:43        1.30
  WS02006247           JUNCTION     0.61     1.23     8.73     0  02:43        1.23
  WS02006248           JUNCTION     0.55     1.10     8.69     0  01:37        1.10
  WS02006249           JUNCTION     0.57     1.09     8.69     0  01:37        1.09
  WS02006251           JUNCTION     0.74     2.18     9.85     0  02:01        2.17
  WS02006252           JUNCTION     0.49     1.50     9.74     0  00:00        1.50
  WS02006253           JUNCTION     0.86     3.20    10.84     0  02:01        3.18
  WS02006256           JUNCTION     1.21     2.35     9.28     0  00:00        2.35
  WS02006280           JUNCTION     0.43     1.75    10.02     0  01:52        1.74
  WS02006284           JUNCTION     0.67     1.96    10.35     0  01:52        1.94
  WS02006287           JUNCTION     0.41     1.74    10.69     0  01:58        1.74
  WSF200               JUNCTION     0.25     0.54     5.77     0  02:01        0.54
  YS02001580           JUNCTION     0.15     1.05     9.59     0  01:48        0.77
  YS02001583           JUNCTION     0.18     1.14     9.64     0  01:48        0.83
  YS02001586           JUNCTION     0.29     1.13     9.30     0  01:48        1.13
  YS02001590           JUNCTION     0.41     1.40     9.26     0  01:48        1.37
  YS02001593           JUNCTION     0.34     1.34     9.20     0  01:48        1.29
  YS02001596           JUNCTION     0.46     1.69     9.11     0  01:48        1.65
  YS02001600           JUNCTION     0.55     1.87     9.00     0  01:48        1.86
  YS02001601           JUNCTION     0.75     2.06     8.90     0  01:47        2.06
  YS02001602           JUNCTION     0.65     1.87     8.77     0  01:48        1.87
  YS02001605           JUNCTION     0.60     1.78     8.68     0  01:48        1.78
  YS02001607           JUNCTION     0.58     1.68     8.53     0  01:48        1.68
  YS02001610           JUNCTION     0.62     1.68     8.48     0  01:48        1.68
  YS02001613           JUNCTION     0.58     1.70     8.54     0  01:48        1.70
  YS02001616           JUNCTION     0.51     1.61     8.52     0  01:48        1.61
  YS02001619           JUNCTION     0.49     1.61     8.54     0  01:48        1.61
  YS02001622           JUNCTION     0.48     1.58     8.49     0  02:03        1.58
  YS02001625           JUNCTION     0.73     1.78     8.38     0  01:51        1.78
  YS02001629           JUNCTION     0.63     1.85     8.40     0  01:53        1.85
  YS02001633           JUNCTION     0.70     2.03     8.48     0  02:00        2.03
  YS02001641           JUNCTION     0.68     1.95     8.39     0  01:53        1.95
  YS02001644           JUNCTION     0.67     1.92     8.35     0  01:53        1.92
  YS02001647           JUNCTION     0.46     1.79     8.40     0  01:57        1.78
  YS02001649           JUNCTION     0.53     2.03     8.42     0  01:57        2.02
  YS02001652           JUNCTION     0.41     1.91     8.50     0  01:57        1.89
  YS02001655           JUNCTION     0.32     1.76     8.61     0  01:57        1.72
  YS02001658           JUNCTION     0.24     1.57     8.72     0  01:57        1.51
  YS02001661           JUNCTION     0.22     1.39     8.79     0  01:57        1.32
  YS02001664           JUNCTION     0.09     0.86     8.78     0  02:01        0.85
  YS02001745           JUNCTION     0.12     0.99     8.51     0  02:01        0.98
  YS02001748           JUNCTION     0.23     1.44     8.52     0  01:54        1.39
  YS02001751           JUNCTION     0.28     1.56     8.44     0  02:01        1.55
  YS02001754           JUNCTION     0.37     1.80     8.40     0  02:01        1.80
  YS02001757           JUNCTION     0.56     2.11     8.37     0  02:00        2.11
  YS02001759           JUNCTION     0.50     2.11     8.48     0  02:00        2.11
  YS02001762           JUNCTION     0.49     2.07     8.47     0  02:00        2.07
  YS02001765           JUNCTION     0.46     2.02     8.47     0  02:00        2.02
  YS02001767           JUNCTION     0.46     1.97     8.46     0  02:00        1.97
  YS02001770           JUNCTION     0.47     1.95     8.44     0  01:58        1.95
  YS02001774           JUNCTION     0.53     2.01     8.43     0  01:58        2.01
  YS02001779           JUNCTION     0.35     1.68     8.37     0  01:52        1.68
  YS02001783           JUNCTION     0.32     1.25     7.39     0  02:01        1.23
  YS02001784           JUNCTION     0.33     1.13     7.20     0  01:59        1.13
  YS02001786           JUNCTION     0.27     0.88     6.91     0  02:01        0.87
  YS02001788           JUNCTION     0.20     0.63     6.60     0  02:01        0.62
  YS02001790           JUNCTION     0.23     0.73     6.38     0  02:01        0.72
  YS02001791           JUNCTION     0.15     0.44     5.91     0  01:57        0.44
  YS02001793           JUNCTION     0.07     0.30     5.14     0  02:12        0.27
  YS02001882           JUNCTION     0.40     1.69     8.40     0  02:00        1.69
  YS02001884           JUNCTION     0.49     1.79     8.41     0  02:00        1.79
  YS02001887           JUNCTION     0.56     1.87     8.41     0  02:00        1.86
  YS02001890           JUNCTION     0.59     1.81     8.32     0  01:52        1.81
  YS02001895           JUNCTION     0.36     1.57     8.32     0  01:52        1.56
  YS02001898           JUNCTION     0.37     1.57     8.31     0  01:52        1.56
  YS02001901           JUNCTION     0.48     1.68     8.29     0  01:52        1.67
  YS02001904           JUNCTION     0.46     1.64     8.27     0  01:52        1.64
  YS02001907           JUNCTION     0.78     1.96     8.25     0  01:52        1.96
  YS02001910           JUNCTION     0.59     2.01     8.52     0  02:01        2.01
  YS02001915           JUNCTION     0.41     2.00     8.72     0  02:00        2.00
  YS02001918           JUNCTION     0.24     1.81     8.88     0  01:53        1.71
  YS02001920           JUNCTION     0.32     2.11     9.11     0  01:53        1.80
  YS02001923           JUNCTION     0.19     2.02     9.28     0  01:53        1.57
  YS02001926           JUNCTION     0.22     1.90     9.35     0  01:53        1.41
  YS02001929           JUNCTION     0.13     1.78     9.47     0  01:53        1.19
  YS02006553           JUNCTION     0.78     1.99     8.27     0  02:00        1.98
  YS02006556           JUNCTION     0.75     1.98     8.29     0  01:59        1.98
  YS02006558           JUNCTION     0.80     2.04     8.30     0  02:00        2.04
  YS02006561           JUNCTION     0.20     0.92     7.58     0  01:52        0.92
  YS02163301           JUNCTION     0.65     1.92     8.44     0  02:00        1.92
  YS02163601           JUNCTION     0.74     2.04     8.44     0  01:53        2.04
  YS02164001           JUNCTION     0.67     1.96     8.42     0  01:53        1.95
  YSB1154              JUNCTION     0.55     2.07    11.13     0  02:01        2.07
  YSB1171              JUNCTION     0.69     1.95    10.85     0  01:52        1.95
  YSB1174              JUNCTION     0.50     1.87    10.98     0  02:01        1.87
  YSB6556              JUNCTION     0.45     1.80    10.97     0  02:00        1.80
  CC-1                 OUTFALL      0.00     0.00     0.00     0  00:00        0.00
  CC-2                 OUTFALL      0.00     0.00     0.00     0  00:00        0.00
  JK-1                 OUTFALL      0.00     0.00     0.00     0  00:00        0.00
  JK-2                 OUTFALL      0.00     0.00     0.00     0  00:00        0.00
  WSC                  OUTFALL      0.31     0.53     1.20     0  02:05        0.53
  CC-storage           STORAGE      0.97     1.92     7.42     0  02:34        1.92
  JK-storage           STORAGE      2.20     4.23     5.03     0  02:12        4.21
  XR-storage           STORAGE      7.86     9.26     7.26     0  08:00        9.26
  
  
  *******************
  Node Inflow Summary
  *******************
  
  -------------------------------------------------------------------------------------------------
                                  Maximum  Maximum                  Lateral       Total        Flow
                                  Lateral    Total  Time of Max      Inflow      Inflow     Balance
                                   Inflow   Inflow   Occurrence      Volume      Volume       Error
  Node                 Type           LPS      LPS  days hr:min    10^6 ltr    10^6 ltr     Percent
  -------------------------------------------------------------------------------------------------
  HS02004478           JUNCTION      0.00  2304.97     0  01:58           0        10.7      -0.009
  HS02004479           JUNCTION      0.00   393.48     0  01:52           0        1.05       0.083
  HS02004480           JUNCTION      0.00  2073.06     0  01:51           0        7.81       0.025
  HS02004770           JUNCTION   2462.16  2462.16     0  02:02        4.07        4.32       0.063
  HS02004777           JUNCTION      0.03   711.97     0  01:48    0.000864        2.11       0.251
  HS02004785           JUNCTION      0.15   731.14     0  01:48     0.00432        2.11       0.017
  HS02004788           JUNCTION    892.69   940.42     0  02:01        1.54        3.65       0.002
  HS02004792           JUNCTION   3006.88  3929.99     0  02:02        5.31        8.95       0.004
  HS02004799           JUNCTION    559.41  1720.87     0  01:50       0.859        7.25       0.043
  HS02004802           JUNCTION      0.00  1234.46     0  02:03           0        3.17       0.127
  HS02004807           JUNCTION    695.97  1892.71     0  02:01        1.05        3.58       0.117
  HS02004817           JUNCTION      0.60  1197.02     0  02:07      0.0173        2.59       0.635
  HS02004824           JUNCTION    945.47  1531.71     0  02:03        1.87        2.94       0.011
  HS02004830           JUNCTION      0.15   598.44     0  02:01     0.00432        1.28       0.095
  HS02004837           JUNCTION    641.70   773.53     0  01:52        1.18        1.65       0.041
  HS02004842           JUNCTION      0.00   778.19     0  01:50           0       0.984       1.342
  HS02004848           JUNCTION    870.07  1027.30     0  01:52        1.88         2.5       0.009
  HS02004852           JUNCTION      0.00   997.17     0  01:52           0        2.16      -0.028
  HS02004856           JUNCTION    283.93  1051.43     0  01:51       0.434        2.59       0.073
  HS02004862           JUNCTION    399.73  1178.88     0  02:02        0.79        3.38       0.021
  HS02004870           JUNCTION    379.23  1263.74     0  02:08       0.577        3.82       0.012
  HS02004876           JUNCTION    374.90  1518.48     0  02:07       0.598        4.41       0.021
  HS02004881           JUNCTION    205.70  1690.59     0  02:01       0.304        4.72       0.016
  HS02004901           JUNCTION    587.11   852.36     0  02:02       0.904        1.42       0.122
  WS02001211           JUNCTION      7.35   204.22     0  03:24       0.212        5.44       0.612
  WS02001212           JUNCTION      0.00   210.22     0  03:24           0        5.41       0.290
  WS02001213           JUNCTION      0.00   213.58     0  03:23           0        5.39       0.332
  WS02003059           JUNCTION      0.00   220.06     0  03:22           0        5.38       0.595
  WS02003060           JUNCTION     16.53  1573.26     0  02:03       0.476        15.3       0.096
  WS02003066           JUNCTION      0.00  1374.13     0  02:01           0        9.43       0.015
  WS02003067           JUNCTION      0.00  1372.01     0  02:01           0        9.44       0.046
  WS02003069           JUNCTION      0.32  1564.42     0  02:03     0.00922        15.2       0.101
  WS02003072           JUNCTION      0.00  1562.65     0  02:04           0        15.2       0.136
  WS02003073           JUNCTION      1.82  1563.95     0  02:04      0.0524        15.3       0.142
  WS02004138           JUNCTION      0.00   380.00     0  00:00           0        5.25       0.052
  WS02004139           JUNCTION      0.32   190.95     0  00:29     0.00924        5.26       0.509
  WS02004401           JUNCTION      0.00  1369.90     0  02:02           0        9.54       0.109
  WS02004402           JUNCTION      0.00  1369.78     0  02:02           0        9.53       0.109
  WS02004403           JUNCTION      0.00  1369.82     0  02:02           0        9.52       0.107
  WS02004404           JUNCTION      0.16  1370.45     0  02:02     0.00467        9.52       0.089
  WS02004405           JUNCTION      0.04  1370.34     0  02:01      0.0011        9.51       0.131
  WS02004406           JUNCTION      0.00  1369.69     0  02:02           0         9.5       0.222
  WS02004407           JUNCTION      0.00  1369.61     0  02:02           0        9.47       0.015
  WS02004409           JUNCTION      0.00  1371.23     0  02:01           0        9.47       0.029
  WS02004410           JUNCTION      0.00  1371.51     0  02:01           0        9.47       0.048
  WS02004411           JUNCTION      0.00  1371.51     0  02:01           0        9.47       0.063
  WS02004412           JUNCTION      0.00  1371.53     0  02:01           0        9.46       0.082
  WS02004413           JUNCTION      0.00  1371.98     0  02:01           0        9.45       0.143
  WS02006109           JUNCTION      1.23  1289.86     0  01:57      0.0354        9.31       0.095
  WS02006110           JUNCTION      0.00  1125.55     0  02:27           0        8.84       0.085
  WS02006111           JUNCTION      0.00  1125.69     0  02:28           0        8.83       0.004
  WS02006112           JUNCTION    478.24  1370.19     0  02:01       0.742        9.57       0.207
  WS02006113           JUNCTION      0.00  1125.54     0  02:27           0        8.83       0.022
  WS02006115           JUNCTION      0.00  1369.85     0  02:01           0        9.55       0.068
  WS02006116           JUNCTION      0.00  1369.92     0  02:02           0        9.55       0.048
  WS02006228           JUNCTION      0.00  1288.95     0  01:57           0        9.28       0.048
  WS02006229           JUNCTION      0.00  2306.73     0  01:57           0        12.6       0.057
  WS02006230           JUNCTION     10.28  1026.55     0  01:57       0.296        5.23       0.181
  WS02006231           JUNCTION      0.00   453.67     0  01:52           0        3.56      -0.164
  WS02006232           JUNCTION      0.00   453.53     0  01:52           0        3.53       0.126
  WS02006234           JUNCTION      0.00   453.33     0  01:51           0         3.5      -0.117
  WS02006235           JUNCTION      0.00   427.53     0  03:17           0        3.56       0.104
  WS02006238           JUNCTION      0.00   419.58     0  03:46           0        3.25      -0.111
  WS02006239           JUNCTION      0.00   419.55     0  03:46           0        3.22      -0.106
  WS02006240           JUNCTION      0.00   419.49     0  03:46           0         3.2      -0.013
  WS02006242           JUNCTION      0.00   419.45     0  03:46           0        3.18       0.009
  WS02006243           JUNCTION      0.00   419.42     0  03:46           0         2.6      -0.041
  WS02006245           JUNCTION      0.00   419.38     0  03:46           0         2.6       0.271
  WS02006247           JUNCTION      0.00   419.33     0  03:46           0         2.6       0.009
  WS02006248           JUNCTION      0.00   419.23     0  03:46           0        2.91       0.018
  WS02006249           JUNCTION      0.00  1388.14     0  02:01           0        6.94       0.060
  WS02006251           JUNCTION      0.08  1745.02     0  02:01     0.00222        7.24      -0.011
  WS02006252           JUNCTION      0.00   757.95     0  02:01           0        3.44      -0.023
  WS02006253           JUNCTION     54.03  1745.18     0  02:01      0.0734         4.8       0.000
  WS02006256           JUNCTION      0.00   300.00     0  00:00           0           2      -0.119
  WS02006280           JUNCTION      0.00  2304.34     0  01:57           0        10.7       0.011
  WS02006284           JUNCTION      0.10  2304.52     0  01:57     0.00275        10.7      -0.000
  WS02006287           JUNCTION      0.00  2305.01     0  01:57           0        10.7       0.009
  WSF200               JUNCTION      0.00  1373.52     0  02:01           0        9.43       0.007
  YS02001580           JUNCTION      0.00    77.43     0  01:48           0     0.00409       1.688
  YS02001583           JUNCTION      0.00   135.14     0  01:47           0      0.0152      -5.768
  YS02001586           JUNCTION   1092.32  1092.35     0  02:04        2.48         2.5       0.046
  YS02001590           JUNCTION      0.00   318.14     0  02:26           0        1.64      -0.020
  YS02001593           JUNCTION      0.00   318.16     0  02:26           0        1.64      -0.001
  YS02001596           JUNCTION      0.00   318.05     0  02:05           0        1.64      -0.014
  YS02001600           JUNCTION      0.00   318.05     0  02:32           0        1.64       0.008
  YS02001601           JUNCTION   1912.69  2230.14     0  02:02        3.36           5       0.014
  YS02001602           JUNCTION      0.00   503.52     0  01:47           0        2.65       0.015
  YS02001605           JUNCTION      0.00   504.04     0  01:47           0        2.47       0.015
  YS02001607           JUNCTION      0.00   503.80     0  01:47           0        2.47       0.073
  YS02001610           JUNCTION      0.00   956.31     0  02:06           0        3.06       0.071
  YS02001613           JUNCTION      0.00   619.60     0  02:06           0        2.35       0.060
  YS02001616           JUNCTION      0.00   620.00     0  02:06           0        2.35       0.018
  YS02001619           JUNCTION   1946.06  1946.06     0  02:03        3.99        5.75      -0.002
  YS02001622           JUNCTION      0.00  1053.93     0  02:07           0        5.06      -0.003
  YS02001625           JUNCTION      0.00  1505.30     0  02:07           0        5.52       0.180
  YS02001629           JUNCTION      0.00   916.02     0  01:51           0        3.88       0.000
  YS02001633           JUNCTION   1440.20  1440.20     0  02:02        2.47        5.77       0.056
  YS02001641           JUNCTION      0.00  1322.28     0  01:51           0         5.2       0.052
  YS02001644           JUNCTION   1287.83  2324.57     0  02:02        2.14        7.41       0.042
  YS02001647           JUNCTION      0.00  1689.79     0  01:51           0        6.06       0.001
  YS02001649           JUNCTION      0.00  1875.57     0  01:51           0        7.97      -0.000
  YS02001652           JUNCTION      0.00  1270.85     0  02:01           0        1.98      -0.066
  YS02001655           JUNCTION      0.15  1271.37     0  02:01     0.00443        1.98       0.003
  YS02001658           JUNCTION      0.00  1270.42     0  02:01           0        1.97      -0.038
  YS02001661           JUNCTION      0.00  1270.76     0  02:01           0        1.97       0.003
  YS02001664           JUNCTION   1258.43  1258.43     0  02:02        1.97        1.97      -0.005
  YS02001745           JUNCTION    788.83   788.83     0  02:02        1.18        1.18       0.127
  YS02001748           JUNCTION      0.04   804.83     0  02:01      0.0013        1.18      -0.194
  YS02001751           JUNCTION      0.01   805.12     0  02:01    0.000317        1.19       0.059
  YS02001754           JUNCTION      0.26   805.30     0  02:01     0.00749         1.2      -0.114
  YS02001757           JUNCTION      0.00  3138.15     0  01:59           0        12.5       0.010
  YS02001759           JUNCTION   1097.32  1368.72     0  02:01        1.64        3.45      -0.007
  YS02001762           JUNCTION      0.00   699.75     0  01:55           0        1.82      -0.005
  YS02001765           JUNCTION      0.00   700.42     0  01:55           0        1.82      -0.007
  YS02001767           JUNCTION      0.54   700.73     0  01:55      0.0154        1.82      -0.005
  YS02001770           JUNCTION   1561.31  1561.31     0  02:02        2.48        2.53      -0.006
  YS02001774           JUNCTION      0.00   851.84     0  02:04           0       0.644       0.146
  YS02001779           JUNCTION      0.01   851.61     0  02:05    0.000144       0.598      -0.099
  YS02001783           JUNCTION      0.00  1173.15     0  02:00           0        4.99       0.006
  YS02001784           JUNCTION      1.06  1173.97     0  02:01      0.0305        5.02       0.010
  YS02001786           JUNCTION      0.06  1173.84     0  02:01     0.00162        5.02       0.013
  YS02001788           JUNCTION      0.07  1174.91     0  02:00     0.00204        5.03       0.006
  YS02001790           JUNCTION      0.15  1181.74     0  02:00     0.00446        5.03       0.022
  YS02001791           JUNCTION      0.00  1298.77     0  01:57           0        5.03      -0.030
  YS02001793           JUNCTION      0.00  1261.46     0  02:01           0        5.03       0.005
  YS02001882           JUNCTION      0.00    29.22     0  01:50           0       0.013       5.038
  YS02001884           JUNCTION      0.00    52.47     0  01:49           0      0.0489       5.454
  YS02001887           JUNCTION   1186.10  1186.77     0  02:01         1.7        1.73       0.258
  YS02001890           JUNCTION      0.00  1187.49     0  02:01           0        1.69       0.305
  YS02001895           JUNCTION      0.00   518.12     0  02:07           0        1.39       0.133
  YS02001898           JUNCTION      0.00   518.38     0  02:09           0        1.39       0.002
  YS02001901           JUNCTION      0.00   518.10     0  02:07           0         1.4       0.236
  YS02001904           JUNCTION      0.00   518.14     0  02:07           0         1.4       0.201
  YS02001907           JUNCTION      0.00  2942.40     0  02:02           0        5.19       0.348
  YS02001910           JUNCTION      0.00  1993.03     0  02:03           0        3.68       0.193
  YS02001915           JUNCTION   1388.57  2068.63     0  02:02        2.36        3.72       0.045
  YS02001918           JUNCTION      0.00   683.82     0  02:03           0        1.38       0.003
  YS02001920           JUNCTION      2.87   683.63     0  02:03      0.0827        1.36       0.070
  YS02001923           JUNCTION      0.04   678.86     0  02:03     0.00109        1.27      -0.004
  YS02001926           JUNCTION      0.05   680.14     0  02:03      0.0015        1.25      -0.006
  YS02001929           JUNCTION    678.94   678.94     0  02:03        1.24        1.24      -0.080
  YS02006553           JUNCTION      0.00   797.10     0  02:24           0         2.8       0.422
  YS02006556           JUNCTION      0.00   796.67     0  02:26           0         2.8       0.290
  YS02006558           JUNCTION   1598.55  1598.55     0  02:02        2.49        5.15       0.075
  YS02006561           JUNCTION      0.00  1173.15     0  02:00           0        4.99      -0.006
  YS02163301           JUNCTION      0.00   915.53     0  01:51           0        3.88       0.033
  YS02163601           JUNCTION      0.11  1326.31     0  01:51     0.00317        5.19       0.089
  YS02164001           JUNCTION      0.00  1324.89     0  01:51           0        5.19       0.038
  YSB1154              JUNCTION    644.07   644.07     0  02:02        1.03        1.03       0.142
  YSB1171              JUNCTION      0.00  1424.65     0  02:01           0        2.04       0.307
  YSB1174              JUNCTION    558.48   558.48     0  02:01       0.784       0.785       0.160
  YSB6556              JUNCTION      0.00   644.05     0  02:02           0        1.03       0.113
  CC-1                 OUTFALL       0.00   683.00     0  00:00           0        5.05       0.000
  CC-2                 OUTFALL       0.00   683.00     0  00:00           0        4.85       0.000
  JK-1                 OUTFALL       0.00  1000.00     0  00:00           0        2.99       0.000
  JK-2                 OUTFALL       0.00  1000.00     0  00:00           0      0.0484       0.000
  WSC                  OUTFALL       0.00  1564.29     0  02:05           0        15.2       0.000
  CC-storage           STORAGE       0.00  3138.51     0  02:00           0        14.8      -0.142
  JK-storage           STORAGE       0.00  1274.84     0  01:55           0        5.18      -0.014
  XR-storage           STORAGE     200.00   200.00     0  00:00        5.76        6.36       0.001
  
  
  **********************
  Node Surcharge Summary
  **********************
  
  Surcharging occurs when water rises above the top of the highest conduit.
  ---------------------------------------------------------------------
                                               Max. Height   Min. Depth
                                   Hours       Above Crown    Below Rim
  Node                 Type      Surcharged         Meters       Meters
  ---------------------------------------------------------------------
  HS02004478           JUNCTION        0.71          0.674        0.266
  HS02004479           JUNCTION        0.87          0.893        0.157
  HS02004480           JUNCTION        0.91          0.961        0.139
  HS02004770           JUNCTION        0.80          0.720        0.000
  HS02004777           JUNCTION        0.80          0.780        0.000
  HS02004785           JUNCTION        0.75          0.790        0.000
  HS02004788           JUNCTION        0.73          0.720        0.000
  HS02004792           JUNCTION        0.87          0.900        0.000
  HS02004799           JUNCTION        1.02          1.060        0.000
  HS02004802           JUNCTION        0.92          1.092        0.118
  HS02004807           JUNCTION        0.90          1.220        0.000
  HS02004817           JUNCTION        1.55          1.714        0.026
  HS02004824           JUNCTION        0.74          1.310        0.000
  HS02004830           JUNCTION        0.70          1.308        0.022
  HS02004837           JUNCTION        0.66          1.264        0.076
  HS02004842           JUNCTION        0.82          1.520        0.000
  HS02004848           JUNCTION        0.62          1.356        0.014
  HS02004852           JUNCTION        0.65          1.365        0.055
  HS02004856           JUNCTION        0.64          1.266        0.034
  HS02004862           JUNCTION        0.68          1.300        0.000
  HS02004870           JUNCTION        0.70          1.351        0.049
  HS02004876           JUNCTION        0.79          1.464        0.096
  HS02004881           JUNCTION        0.77          1.223        0.227
  HS02004901           JUNCTION        0.80          0.720        0.000
  WS02004401           JUNCTION        1.75          1.055        0.605
  WS02004402           JUNCTION        1.77          0.988        0.752
  WS02004403           JUNCTION        1.78          0.906        1.124
  WS02004404           JUNCTION        1.96          0.902        1.878
  WS02004405           JUNCTION        1.92          0.851        1.949
  WS02004406           JUNCTION        1.88          0.729        1.721
  WS02004407           JUNCTION        0.08          0.053        2.287
  WS02004409           JUNCTION        1.37          0.474        1.886
  WS02004410           JUNCTION        1.31          0.362        2.178
  WS02004411           JUNCTION        1.21          0.260        2.270
  WS02004412           JUNCTION        1.08          0.152        2.158
  WS02004413           JUNCTION        1.55          0.168        2.032
  WS02006109           JUNCTION        2.42          1.820        0.000
  WS02006110           JUNCTION        2.28          1.546        0.304
  WS02006111           JUNCTION        1.51          1.120        0.750
  WS02006112           JUNCTION        2.32          1.606        0.074
  WS02006113           JUNCTION        1.52          1.147        0.783
  WS02006115           JUNCTION        1.71          1.167        1.083
  WS02006116           JUNCTION        1.72          1.099        1.191
  WS02006228           JUNCTION        2.42          2.200        0.000
  WS02006229           JUNCTION        1.28          1.051        0.019
  WS02006230           JUNCTION        2.03          1.570        0.000
  WS02006231           JUNCTION        2.27          1.479        0.051
  WS02006232           JUNCTION        2.34          1.480        0.000
  WS02006234           JUNCTION        2.28          1.240        0.000
  WS02006235           JUNCTION        2.29          1.230        0.060
  WS02006238           JUNCTION        2.30          1.218        0.212
  WS02006239           JUNCTION        2.27          1.053        0.237
  WS02006240           JUNCTION        2.26          0.945        0.445
  WS02006242           JUNCTION        2.27          0.820        0.000
  WS02006243           JUNCTION        2.24          0.669        0.101
  WS02006245           JUNCTION        2.23          0.589        0.261
  WS02006247           JUNCTION        2.23          0.524        0.236
  WS02006248           JUNCTION        2.21          0.380        0.000
  WS02006249           JUNCTION        2.21          0.390        0.000
  WS02006251           JUNCTION        2.18          1.146        0.034
  WS02006252           JUNCTION        2.33          1.100        0.000
  WS02006253           JUNCTION        2.19          2.155        0.325
  WS02006256           JUNCTION        4.69          2.050        0.000
  WS02006280           JUNCTION        1.06          0.704        0.076
  WS02006284           JUNCTION        0.95          0.676        0.124
  WS02006287           JUNCTION        0.83          0.740        0.150
  YS02001580           JUNCTION        0.89          0.450        0.000
  YS02001583           JUNCTION        0.90          0.500        0.000
  YS02001586           JUNCTION        1.07          0.510        0.000
  YS02001590           JUNCTION        1.17          0.750        0.000
  YS02001593           JUNCTION        1.17          0.723        0.117
  YS02001596           JUNCTION        1.31          0.957        0.113
  YS02001600           JUNCTION        1.45          1.190        0.000
  YS02001601           JUNCTION        1.73          1.440        0.000
  YS02001602           JUNCTION        1.64          1.270        0.000
  YS02001605           JUNCTION        1.60          1.180        0.000
  YS02001607           JUNCTION        1.19          0.680        0.000
  YS02001610           JUNCTION        1.22          0.680        0.000
  YS02001613           JUNCTION        1.19          0.700        0.000
  YS02001616           JUNCTION        1.14          0.610        0.000
  YS02001619           JUNCTION        1.12          0.610        0.000
  YS02001622           JUNCTION        1.12          0.584        0.036
  YS02001625           JUNCTION        1.32          0.780        0.000
  YS02001629           JUNCTION        1.05          0.470        0.000
  YS02001633           JUNCTION        1.35          1.007        0.053
  YS02001641           JUNCTION        1.31          0.952        0.148
  YS02001644           JUNCTION        1.29          0.920        0.000
  YS02001647           JUNCTION        1.06          0.786        0.114
  YS02001649           JUNCTION        1.21          1.035        0.015
  YS02001652           JUNCTION        1.00          0.875        0.255
  YS02001655           JUNCTION        0.79          0.758        0.442
  YS02001658           JUNCTION        0.45          0.575        0.725
  YS02001661           JUNCTION        0.15          0.318        1.072
  YS02001748           JUNCTION        0.36          0.365        0.825
  YS02001751           JUNCTION        0.64          0.562        0.638
  YS02001754           JUNCTION        0.92          0.746        0.404
  YS02001757           JUNCTION        1.27          1.110        0.100
  YS02001759           JUNCTION        1.20          1.112        0.098
  YS02001762           JUNCTION        1.17          1.072        0.078
  YS02001765           JUNCTION        1.13          1.017        0.083
  YS02001767           JUNCTION        1.10          0.973        0.057
  YS02001770           JUNCTION        1.06          0.920        0.000
  YS02001774           JUNCTION        1.16          1.006        0.044
  YS02001779           JUNCTION        0.89          0.680        0.000
  YS02001783           JUNCTION        0.74          0.451        1.149
  YS02001784           JUNCTION        0.71          0.333        1.157
  YS02001786           JUNCTION        0.59          0.083        1.347
  YS02001882           JUNCTION        0.67          0.689        0.141
  YS02001884           JUNCTION        0.69          0.729        0.141
  YS02001887           JUNCTION        0.73          0.817        0.133
  YS02001890           JUNCTION        0.75          0.760        0.000
  YS02001895           JUNCTION        0.66          0.570        0.180
  YS02001898           JUNCTION        0.66          0.544        0.196
  YS02001901           JUNCTION        0.71          0.682        0.188
  YS02001904           JUNCTION        0.70          0.641        0.209
  YS02001907           JUNCTION        1.01          0.950        0.000
  YS02001910           JUNCTION        0.78          1.013        0.087
  YS02001915           JUNCTION        0.67          1.000        0.000
  YS02001918           JUNCTION        0.57          0.810        0.000
  YS02001920           JUNCTION        0.59          1.106        0.034
  YS02001923           JUNCTION        0.24          0.811        0.009
  YS02001926           JUNCTION        0.27          0.900        0.000
  YS02001929           JUNCTION        0.13          0.780        0.000
  YS02006553           JUNCTION        1.04          0.987        0.203
  YS02006556           JUNCTION        0.89          0.939        0.411
  YS02006558           JUNCTION        0.88          0.935        0.465
  YS02006561           JUNCTION        0.54          0.120        1.030
  YS02163301           JUNCTION        1.33          0.925        0.105
  YS02163601           JUNCTION        1.39          1.038        0.042
  YS02164001           JUNCTION        1.31          0.958        0.142
  YSB1154              JUNCTION        1.19          1.371        0.029
  YSB1171              JUNCTION        1.20          1.100        0.000
  YSB1174              JUNCTION        1.07          1.175        0.075
  YSB6556              JUNCTION        0.99          1.100        0.000
  
  
  *********************
  Node Flooding Summary
  *********************
  
  Flooding refers to all water that overflows a node, whether it ponds or not.
  --------------------------------------------------------------------------
                                                             Total   Maximum
                                 Maximum   Time of Max       Flood    Ponded
                        Hours       Rate    Occurrence      Volume     Depth
  Node                 Flooded       LPS   days hr:min    10^6 ltr    Meters
  --------------------------------------------------------------------------
  HS02004770              0.56   2166.25      0  02:02       1.690     0.000
  HS02004777              0.01     49.83      0  01:49       0.000     0.000
  HS02004785              0.01     46.79      0  01:49       0.000     0.000
  HS02004788              0.01    205.45      0  01:49       0.001     0.000
  HS02004792              0.57   2787.14      0  02:02       2.565     0.000
  HS02004799              0.34    396.24      0  02:02       0.247     0.000
  HS02004807              0.24    659.63      0  02:01       0.375     0.000
  HS02004824              0.18    335.60      0  02:03       0.148     0.000
  HS02004842              0.17    406.60      0  02:02       0.151     0.000
  HS02004862              0.16    447.63      0  02:02       0.141     0.000
  HS02004901              0.66    852.34      0  02:02       1.166     0.000
  WS02006109              0.63    398.85      0  02:01       0.463     0.000
  WS02006228              0.01      1.90      0  02:11       0.000     0.000
  WS02006230              0.95    573.67      0  01:57       1.406     0.000
  WS02006232              0.24      0.76      0  02:16       0.000     0.000
  WS02006234              1.06    128.96      0  01:52       0.460     0.000
  WS02006242              1.24    137.59      0  02:32       0.557     0.000
  WS02006248              1.48    339.21      0  02:34       1.664     0.000
  WS02006249              2.13   1327.22      0  02:01       5.364     0.000
  WS02006252              0.70    757.49      0  02:01       1.011     0.000
  WS02006256              1.85    293.19      0  00:00       1.179     0.000
  YS02001580              0.01     18.52      0  01:48       0.000     0.000
  YS02001583              0.01     61.55      0  01:48       0.000     0.000
  YS02001586              0.72    774.80      0  02:03       0.842     0.000
  YS02001590              0.01      7.78      0  01:48       0.000     0.000
  YS02001600              0.01      2.62      0  01:48       0.000     0.000
  YS02001601              0.98   1832.27      0  02:02       2.352     0.000
  YS02001602              0.87     62.08      0  02:18       0.181     0.000
  YS02001605              0.01      1.44      0  01:48       0.000     0.000
  YS02001607              0.01      3.18      0  01:48       0.000     0.000
  YS02001610              0.78    955.74      0  02:06       1.306     0.000
  YS02001613              0.01      4.29      0  01:48       0.000     0.000
  YS02001616              0.04      5.16      0  01:48       0.000     0.000
  YS02001619              0.15    282.52      0  02:03       0.087     0.000
  YS02001625              0.76   1505.09      0  02:07       2.200     0.000
  YS02001629              0.26    310.12      0  02:02       0.128     0.000
  YS02001644              0.37   2324.31      0  02:02       1.414     0.000
  YS02001770              0.11    456.24      0  02:02       0.101     0.000
  YS02001779              0.33    851.35      0  02:04       0.579     0.000
  YS02001890              0.28    671.16      0  02:01       0.288     0.000
  YS02001907              0.51   2940.82      0  02:02       2.511     0.000
  YS02001915              0.06     77.31      0  02:02       0.009     0.000
  YS02001918              0.01     99.06      0  01:53       0.001     0.000
  YS02001926              0.01     36.47      0  01:53       0.000     0.000
  YS02001929              0.01    225.64      0  01:53       0.001     0.000
  YSB1171                 0.45   1424.60      0  02:01       1.225     0.000
  YSB6556                 0.02      4.77      0  02:02       0.000     0.000
  
  
  **********************
  Storage Volume Summary
  **********************
  
  --------------------------------------------------------------------------------------------------
                         Average     Avg  Evap Exfil       Maximum     Max    Time of Max    Maximum
                          Volume    Pcnt  Pcnt  Pcnt        Volume    Pcnt     Occurrence    Outflow
  Storage Unit           1000 m3    Full  Loss  Loss       1000 m3    Full    days hr:min        LPS
  --------------------------------------------------------------------------------------------------
  CC-storage               2.717      42     0     0         5.349      83       0  02:34    1783.53
  JK-storage               0.110      38     0     0         0.213      73       0  02:12    2300.00
  XR-storage               0.944      66     0     0         1.111      77       0  08:00     380.00
  
  
  ***********************
  Outfall Loading Summary
  ***********************
  
  -----------------------------------------------------------
                         Flow       Avg       Max       Total
                         Freq      Flow      Flow      Volume
  Outfall Node           Pcnt       LPS       LPS    10^6 ltr
  -----------------------------------------------------------
  CC-1                  41.31    683.00    683.00       5.050
  CC-2                  39.80    683.00    683.00       4.853
  JK-1                  16.15   1000.00   1000.00       2.988
  JK-2                   0.19   1000.00   1000.00       0.048
  WSC                   99.94    706.61   1564.29      15.240
  -----------------------------------------------------------
  System                39.48   4072.61   1564.29      28.180
  
  
  ********************
  Link Flow Summary
  ********************
  
  -----------------------------------------------------------------------------
                                 Maximum  Time of Max   Maximum    Max/    Max/
                                  |Flow|   Occurrence   |Veloc|    Full    Full
  Link                 Type          LPS  days hr:min     m/sec    Flow   Depth
  -----------------------------------------------------------------------------
  1                    CONDUIT   1564.29     0  02:05      3.73    0.54    0.53
  HS02004478WS02006287 CONDUIT   2305.01     0  01:57      2.57    0.65    1.00
  HS02004479HS02004480 CONDUIT    394.84     0  01:52      0.56    0.38    1.00
  HS02004480HS02004478 CONDUIT   2069.00     0  01:51      2.96    8.71    1.00
  HS02004770HS02004777 CONDUIT    711.94     0  01:48      1.02    1.30    1.00
  HS02004777HS02004785 CONDUIT    730.99     0  01:48      1.10    0.90    1.00
  HS02004785HS02004788 CONDUIT    673.86     0  01:49      1.35    5.08    1.00
  HS02004788HS02004792 CONDUIT    941.18     0  02:01      1.45    0.62    1.00
  HS02004792HS02004799 CONDUIT   1567.70     0  01:50      2.24    0.96    1.00
  HS02004799HS02004480 CONDUIT   1719.57     0  01:50      2.46    2.17    1.00
  HS02004802HS02004478 CONDUIT   1234.59     0  02:02      1.76    1.09    1.00
  HS02004807HS02004802 CONDUIT   1234.46     0  02:03      1.76    2.36    1.00
  HS02004817HS02004807 CONDUIT   1197.02     0  02:08      1.71    0.71    1.00
  HS02004817HS02004824 CONDUIT   1196.42     0  02:07      1.71    0.54    1.00
  HS02004824HS02004830 CONDUIT    597.86     0  02:01      0.85    0.78    1.00
  HS02004830HS02004837 CONDUIT    598.29     0  02:01      0.94    0.60    1.00
  HS02004837HS02004842 CONDUIT    778.19     0  01:50      1.11    0.46    1.00
  HS02004842HS02004848 CONDUIT    777.82     0  01:50      1.22    0.45    1.00
  HS02004848HS02004852 CONDUIT    997.17     0  01:52      1.57    1.12    1.00
  HS02004852HS02004856 CONDUIT    961.90     0  01:51      1.45    1.10    1.00
  HS02004856HS02004862 CONDUIT   1046.91     0  01:51      1.67    1.04    1.00
  HS02004862HS02004870 CONDUIT   1055.93     0  02:09      1.72    1.14    1.00
  HS02004870HS02004876 CONDUIT   1264.19     0  02:08      1.81    0.84    1.00
  HS02004876HS02004881 CONDUIT   1518.36     0  02:07      2.26   16.15    1.00
  HS02004881HS02006253 CONDUIT   1691.15     0  02:01      2.76    0.33    1.00
  HS02004901HS02004770 CONDUIT    265.79     0  02:23      0.38    1.00    1.00
  WS02001211WS02001212 CONDUIT    210.22     0  03:24      0.54    0.16    0.71
  WS02001212WS02001213 CONDUIT    213.58     0  03:23      1.04    0.33    0.58
  WS02001213WS02003059 CONDUIT    220.06     0  03:22      0.47    0.36    0.91
  WS02003059WS02003060 CONDUIT    226.83     0  03:22      0.66    0.15    0.83
  WS02003060WS02003069 CONDUIT   1564.10     0  02:03      2.10    0.61    0.63
  WS02003066WSF200     CONDUIT   1373.52     0  02:01      3.29    0.23    0.40
  WS02003067WS02003066 CONDUIT   1374.13     0  02:01      2.07    0.44    0.57
  WS02003069WS02003072 CONDUIT   1562.65     0  02:04      1.92    0.75    0.68
  WS02003072WS02003073 CONDUIT   1562.13     0  02:04      2.08    3.37    0.63
  WS02004138WS02004139 CONDUIT    190.63     0  00:29      2.18    0.04    0.42
  WS02004139WS02001211 CONDUIT    196.87     0  03:24      0.54    0.25    0.62
  WS02004401WS02004402 CONDUIT   1369.78     0  02:02      1.74    1.64    1.00
  WS02004402WS02004403 CONDUIT   1369.82     0  02:02      1.74    1.97    1.00
  WS02004403WS02004404 CONDUIT   1370.29     0  02:02      1.74    0.99    1.00
  WS02004404WS02004405 CONDUIT   1370.31     0  02:01      1.74   13.43    1.00
  WS02004405WS02004406 CONDUIT   1369.69     0  02:02      1.74    2.70    1.00
  WS02004406WS02004407 CONDUIT   1369.61     0  02:02      1.81    0.61    1.00
  WS02004407WS02004409 CONDUIT   1371.23     0  02:01      1.82    0.49    1.00
  WS02004409WS02004410 CONDUIT   1371.51     0  02:01      1.75    1.77    1.00
  WS02004410WS02004411 CONDUIT   1371.51     0  02:01      1.75    1.87    1.00
  WS02004411WS02004412 CONDUIT   1371.53     0  02:01      1.75    1.95    1.00
  WS02004412WS02004413 CONDUIT   1371.98     0  02:01      1.75    0.92    1.00
  WS02004413WS02003067 CONDUIT   1372.01     0  02:01      2.10    0.59    0.78
  WS02006109WS02006110 CONDUIT   1125.55     0  02:27      2.24    2.16    1.00
  WS02006110WS02006113 CONDUIT   1125.54     0  02:27      2.24    1.02    1.00
  WS02006111WS02006112 CONDUIT   1125.84     0  02:28      2.24    0.54    1.00
  WS02006112WS02006115 CONDUIT   1369.85     0  02:01      1.74    0.81    1.00
  WS02006113WS02006111 CONDUIT   1125.69     0  02:28      2.65    1.35    1.00
  WS02006115WS02006116 CONDUIT   1369.92     0  02:02      1.74    1.76    1.00
  WS02006116WS02004401 CONDUIT   1369.90     0  02:02      1.74    1.89    1.00
  WS02006228WS02006109 CONDUIT   1288.63     0  01:57      2.56    5.63    1.00
  WS02006229WS02006228 CONDUIT   1288.95     0  01:57      2.56    4.27    1.00
  WS02006230WS02006229 CONDUIT   1016.28     0  01:57      2.64   22.62    1.00
  WS02006231WS02006230 CONDUIT    453.67     0  01:52      1.34    6.88    1.00
  WS02006232WS02006231 CONDUIT    453.53     0  01:52      1.18    0.95    1.00
  WS02006234WS02006232 CONDUIT    453.33     0  01:51      1.41    0.92    1.00
  WS02006235WS02006234 CONDUIT    427.75     0  03:17      1.23    4.51    1.00
  WS02006238WS02006235 CONDUIT    419.68     0  03:46      1.45    0.94    1.00
  WS02006239WS02006238 CONDUIT    419.58     0  03:46      1.12    1.34    1.00
  WS02006240WS02006239 CONDUIT    419.55     0  03:46      1.26    1.32    1.00
  WS02006242WS02006240 CONDUIT    419.49     0  03:46      1.14    1.67    1.00
  WS02006243WS02006242 CONDUIT    419.45     0  03:46      1.34    0.90    1.00
  WS02006245WS02006243 CONDUIT    419.42     0  03:46      1.39    1.24    1.00
  WS02006247WS02006245 CONDUIT    419.38     0  03:46      1.37    3.33    1.00
  WS02006248WS02006247 CONDUIT    419.33     0  03:46      1.38    0.91    1.00
  WS02006249WS02006248 CONDUIT    419.23     0  03:46      1.38    2.30    1.00
  WS02006251WS02006249 CONDUIT   1388.14     0  02:01      3.61    4.00    1.00
  WS02006252WS02006251 CONDUIT    409.40     0  01:48     24.89    1.50    1.00
  WS02006253WS02006251 CONDUIT   1744.94     0  02:01      4.53    5.23    1.00
  WS02006256WS02006235 CONDUIT    288.93     0  00:00      4.23    3.06    1.00
  WS02006280WS02006229 CONDUIT   2306.73     0  01:57      4.55    0.49    1.00
  WS02006284WS02006280 CONDUIT   2304.34     0  01:57      2.96    0.96    1.00
  WS02006287WS02006284 CONDUIT   2304.43     0  01:57      2.93    1.07    1.00
  WSF200WS02003060     CONDUIT   1377.83     0  02:02      2.35    0.31    0.52
  YS02001580YS02001583 CONDUIT     77.43     0  01:48      0.57    0.30    1.00
  YS02001583YS02001586 CONDUIT    135.14     0  01:47      0.56    0.20    1.00
  YS02001586YS02001590 CONDUIT    318.14     0  02:26      1.24    0.56    1.00
  YS02001590YS02001593 CONDUIT    318.16     0  02:26      1.13    2.00    1.00
  YS02001593YS02001596 CONDUIT    318.05     0  02:05      1.70    0.50    1.00
  YS02001596YS02001600 CONDUIT    318.05     0  02:32      1.26    0.62    1.00
  YS02001600YS02001601 CONDUIT    318.05     0  02:18      1.12    0.55    1.00
  YS02001601YS02001602 CONDUIT    503.52     0  01:47      1.78    1.82    1.00
  YS02001602YS02001605 CONDUIT    504.04     0  01:47      1.78   10.67    1.00
  YS02001605YS02001607 CONDUIT    503.80     0  01:47      1.78    2.76    1.00
  YS02001607YS02001610 CONDUIT    500.78     0  01:46      0.64    0.48    1.00
  YS02001610YS02001613 CONDUIT    620.13     0  02:06      0.79    0.72    1.00
  YS02001613YS02001616 CONDUIT    619.60     0  02:06      0.79    0.53    1.00
  YS02001616YS02001619 CONDUIT    620.00     0  02:06      0.79    1.08    1.00
  YS02001619YS02001622 CONDUIT   1053.93     0  02:07      1.34    1.55    1.00
  YS02001622YS02001625 CONDUIT   1053.68     0  02:07      1.34    0.56    1.00
  YS02001625YS02001629 CONDUIT    916.02     0  01:51      1.17    0.44    1.00
  YS02001629YS02163301 CONDUIT    915.53     0  01:51      1.17    1.13    1.00
  YS02001633YS02163601 CONDUIT   1326.20     0  01:51      1.69    1.39    1.00
  YS02001641YS02001644 CONDUIT   1321.43     0  01:51      1.68    4.27    1.00
  YS02001644YS02001647 CONDUIT   1689.79     0  01:51      2.19    0.99    1.00
  YS02001647YS02001649 CONDUIT   1692.43     0  01:51      2.32    0.89    1.00
  YS02001649YS02001757 CONDUIT   1848.14     0  01:50      2.41    1.12    1.00
  YS02001652YS02001649 CONDUIT   1271.36     0  02:01      1.62    0.63    1.00
  YS02001655YS02001652 CONDUIT   1270.85     0  02:01      1.62    0.62    1.00
  YS02001658YS02001655 CONDUIT   1271.21     0  02:01      1.84    0.54    1.00
  YS02001661YS02001658 CONDUIT   1270.42     0  02:01      2.23    0.50    1.00
  YS02001664YS02001661 CONDUIT   1270.76     0  02:01      2.16    0.40    0.93
  YS02001745YS02001748 CONDUIT    804.78     0  02:01      2.07    0.31    1.00
  YS02001748YS02001751 CONDUIT    805.11     0  02:01      1.63    0.41    1.00
  YS02001751YS02001754 CONDUIT    805.04     0  02:01      1.41    0.39    1.00
  YS02001754YS02001757 CONDUIT    805.92     0  02:01      1.03    0.32    1.00
  YS02001757CaochengTiaoxuchi CONDUIT   3138.51     0  02:00      4.00    1.36    1.00
  YS02001759YS02001757 CONDUIT   1368.30     0  02:01      1.74    0.97    1.00
  YS02001762YS02001759 CONDUIT    699.56     0  01:55      0.89    0.81    1.00
  YS02001765YS02001762 CONDUIT    699.75     0  01:55      0.89    0.66    1.00
  YS02001767YS02001765 CONDUIT    700.42     0  01:55      0.89    0.88    1.00
  YS02001770YS02001767 CONDUIT    700.20     0  01:55      0.89    2.77    1.00
  YS02001774YS02001770 CONDUIT    851.84     0  02:04      1.08    0.54    1.00
  YS02001779YS02001774 CONDUIT    851.61     0  02:05      1.08    0.43    1.00
  YS02001783YS02001784 CONDUIT   1172.91     0  02:01      2.33    1.62    1.00
  YS02001784YS02001785 CONDUIT   1173.78     0  02:01      2.34    2.73    1.00
  YS02001786YS02001788 CONDUIT   1174.84     0  02:00      2.50    2.26    0.89
  YS02001788YS02001790 CONDUIT   1181.58     0  02:00      2.72    0.87    0.85
  YS02001790YS02001791 CONDUIT   1298.77     0  01:57      3.43    1.41    0.71
  YS02001791YS02001793 CONDUIT   1261.46     0  02:01      6.82    0.54    0.45
  YS02001793JiankangQianchi CONDUIT   1274.84     0  01:55      2.55    0.10    0.65
  YS02001882YS02001884 CONDUIT     29.22     0  01:50      0.16    0.03    1.00
  YS02001884YS02001887 CONDUIT     52.47     0  01:49      0.12    0.07    1.00
  YS02001887YS02001890 CONDUIT   1187.49     0  02:01      1.51    2.03    1.00
  YS02001890YS02001895 CONDUIT    518.12     0  02:07      0.66    0.24    1.00
  YS02001895YS02001898 CONDUIT    518.38     0  02:09      0.66    0.90    1.00
  YS02001898YS02001901 CONDUIT    518.10     0  02:07      0.66    0.33    1.00
  YS02001901YS02001904 CONDUIT    518.14     0  02:07      0.66    0.80    1.00
  YS02001904YS02001907 CONDUIT    518.15     0  02:07      0.66    0.18    1.00
  YS02001907YS02006553 CONDUIT    797.10     0  02:24      0.89    0.94    1.00
  YS02001910YS02001907 CONDUIT   1992.87     0  02:04      2.54    1.12    1.00
  YS02001915YS02001910 CONDUIT   1993.03     0  02:03      2.54    0.99    1.00
  YS02001918YS02001915 CONDUIT    684.00     0  02:03      0.87    0.38    1.00
  YS02001920YS02001918 CONDUIT    683.82     0  02:03      0.87    0.66    1.00
  YS02001923YS02001920 CONDUIT    680.76     0  02:03      0.87    0.31    1.00
  YS02001926YS02001923 CONDUIT    678.82     0  02:03      0.95    0.97    1.00
  YS02001929YS02001926 CONDUIT    680.09     0  02:03      1.09    0.32    1.00
  YS02006553YS02006556 CONDUIT    796.67     0  02:26      1.01    0.68    1.00
  YS02006556YS02006558 CONDUIT    798.40     0  02:26      1.02    0.63    1.00
  YS02006558YS02006561 CONDUIT   1173.15     0  02:00      4.15    2.59    1.00
  YS02006561YS02001783 CONDUIT   1173.15     0  02:00      2.33    0.61    1.00
  YS02163301YS02001633 CONDUIT    915.34     0  01:51      1.17    0.86    1.00
  YS02163601YS02164001 CONDUIT   1324.89     0  01:51      1.69    1.17    1.00
  YS02164001YS02001641 CONDUIT   1322.28     0  01:51      1.68    1.81    1.00
  YSB1154YSB6556       CONDUIT    644.05     0  02:02      1.67    1.16    1.00
  YSB1171HS02004479    CONDUIT    393.48     0  01:52      0.78    0.26    1.00
  YSB1174YSB1171       CONDUIT    558.58     0  02:01      1.45    0.86    1.00
  YSB6556YSB1171       CONDUIT    639.50     0  02:02      1.66    0.66    1.00
  CC-R1                PUMP       683.00     0  00:00              1.00
  CC-R2                PUMP       683.00     0  00:00              1.00
  CC-S1                PUMP       200.00     0  00:00              1.00
  CC-S2                PUMP       200.00     0  00:00              1.00
  JK-R1                PUMP      1000.00     0  00:00              1.00
  JK-R2                PUMP      1000.00     0  00:00              1.00
  JK-S                 PUMP       300.00     0  00:00              1.00
  XR-1                 PUMP        95.00     0  00:00              1.00
  XR-2                 PUMP        95.00     0  00:00              1.00
  XR-3                 PUMP        95.00     0  00:00              1.00
  XR-4                 PUMP        95.00     0  00:00              1.00
  
  
  ***************************
  Flow Classification Summary
  ***************************
  
  -------------------------------------------------------------------------------------
                      Adjusted    ---------- Fraction of Time in Flow Class ---------- 
                       /Actual         Up    Down  Sub   Sup   Up    Down  Norm  Inlet 
  Conduit               Length    Dry  Dry   Dry   Crit  Crit  Crit  Crit  Ltd   Ctrl  
  -------------------------------------------------------------------------------------
  1                       1.00   0.00  0.00  0.00  0.00  1.00  0.00  0.00  0.40  0.00
  HS02004478WS02006287    1.00   0.10  0.00  0.00  0.61  0.30  0.00  0.00  0.58  0.00
  HS02004479HS02004480    1.00   0.04  0.00  0.00  0.96  0.00  0.00  0.00  0.11  0.00
  HS02004480HS02004478    1.00   0.09  0.00  0.00  0.55  0.00  0.00  0.36  0.00  0.00
  HS02004770HS02004777    1.00   0.00  0.09  0.00  0.91  0.00  0.00  0.00  0.02  0.00
  HS02004777HS02004785    1.00   0.00  0.00  0.00  1.00  0.00  0.00  0.00  0.11  0.00
  HS02004785HS02004788    1.00   0.00  0.00  0.00  1.00  0.00  0.00  0.00  0.00  0.00
  HS02004788HS02004792    1.00   0.00  0.00  0.00  0.99  0.01  0.00  0.00  0.87  0.00
  HS02004792HS02004799    1.00   0.00  0.00  0.00  0.99  0.01  0.00  0.00  0.81  0.00
  HS02004799HS02004480    1.00   0.00  0.04  0.00  0.90  0.00  0.06  0.00  0.00  0.00
  HS02004802HS02004478    1.00   0.09  0.00  0.00  0.91  0.00  0.00  0.00  0.02  0.00
  HS02004807HS02004802    1.00   0.09  0.00  0.00  0.91  0.00  0.00  0.01  0.00  0.00
  HS02004817HS02004807    1.00   0.00  0.09  0.00  0.91  0.00  0.00  0.00  0.01  0.00
  HS02004817HS02004824    1.00   0.00  0.00  0.00  1.00  0.00  0.00  0.00  0.78  0.00
  HS02004824HS02004830    1.00   0.00  0.00  0.00  1.00  0.00  0.00  0.00  0.01  0.00
  HS02004830HS02004837    1.00   0.00  0.00  0.00  1.00  0.00  0.00  0.00  0.84  0.00
  HS02004837HS02004842    1.00   0.00  0.00  0.00  1.00  0.00  0.00  0.00  0.11  0.00
  HS02004842HS02004848    1.00   0.00  0.09  0.00  0.91  0.00  0.00  0.00  0.54  0.00
  HS02004848HS02004852    1.00   0.09  0.00  0.00  0.91  0.00  0.00  0.00  0.69  0.00
  HS02004852HS02004856    1.00   0.09  0.00  0.00  0.91  0.00  0.00  0.00  0.64  0.00
  HS02004856HS02004862    1.00   0.00  0.10  0.00  0.90  0.00  0.00  0.00  0.71  0.00
  HS02004862HS02004870    1.00   0.00  0.00  0.00  1.00  0.00  0.00  0.00  0.03  0.00
  HS02004870HS02004876    1.00   0.00  0.00  0.00  0.99  0.01  0.00  0.00  0.82  0.00
  HS02004876HS02004881    1.00   0.02  0.00  0.00  0.74  0.24  0.00  0.00  0.00  0.00
  HS02004881HS02006253    1.00   0.03  0.02  0.00  0.47  0.02  0.00  0.46  0.17  0.00
  HS02004901HS02004770    1.00   0.09  0.00  0.00  0.91  0.00  0.00  0.00  0.00  0.00
  WS02001211WS02001212    1.00   0.00  0.03  0.00  0.97  0.00  0.00  0.00  0.00  0.00
  WS02001212WS02001213    1.00   0.03  0.00  0.00  0.52  0.00  0.45  0.00  0.00  0.00
  WS02001213WS02003059    1.00   0.00  0.00  0.00  0.99  0.00  0.00  0.00  0.00  0.00
  WS02003059WS02003060    1.00   0.00  0.00  0.00  1.00  0.00  0.00  0.00  0.03  0.00
  WS02003060WS02003069    1.00   0.00  0.00  0.00  0.98  0.02  0.00  0.00  0.54  0.00
  WS02003066WSF200        1.00   0.06  0.00  0.00  0.00  0.94  0.00  0.00  0.63  0.00
  WS02003067WS02003066    1.00   0.05  0.00  0.00  0.94  0.00  0.00  0.00  0.00  0.00
  WS02003069WS02003072    1.00   0.00  0.00  0.00  1.00  0.00  0.00  0.00  0.62  0.00
  WS02003072WS02003073    1.00   0.00  0.00  0.00  0.00  0.00  0.00  1.00  0.00  0.00
  WS02004138WS02004139    1.00   0.00  0.01  0.00  0.97  0.01  0.00  0.02  0.98  0.00
  WS02004139WS02001211    1.00   0.00  0.00  0.00  0.99  0.00  0.00  0.00  0.00  0.00
  WS02004401WS02004402    1.00   0.03  0.00  0.00  0.97  0.00  0.00  0.00  0.00  0.00
  WS02004402WS02004403    1.00   0.03  0.00  0.00  0.97  0.00  0.00  0.00  0.00  0.00
  WS02004403WS02004404    1.00   0.00  0.03  0.00  0.97  0.00  0.00  0.00  0.00  0.00
  WS02004404WS02004405    1.00   0.00  0.00  0.00  1.00  0.00  0.00  0.00  0.01  0.00
  WS02004405WS02004406    1.00   0.00  0.00  0.00  1.00  0.00  0.00  0.00  0.00  0.00
  WS02004406WS02004407    1.00   0.00  0.04  0.00  0.96  0.00  0.00  0.00  0.00  0.00
  WS02004407WS02004409    1.00   0.04  0.00  0.00  0.95  0.01  0.00  0.00  0.79  0.00
  WS02004409WS02004410    1.00   0.04  0.00  0.00  0.96  0.00  0.00  0.00  0.00  0.00
  WS02004410WS02004411    1.00   0.04  0.00  0.00  0.96  0.00  0.00  0.00  0.00  0.00
  WS02004411WS02004412    1.00   0.04  0.00  0.00  0.96  0.00  0.00  0.00  0.00  0.00
  WS02004412WS02004413    1.00   0.04  0.00  0.00  0.95  0.00  0.00  0.00  0.00  0.00
  WS02004413WS02003067    1.00   0.05  0.01  0.00  0.00  0.00  0.95  0.00  0.00  0.00
  WS02006109WS02006110    1.00   0.00  0.01  0.00  0.98  0.00  0.01  0.00  0.00  0.00
  WS02006110WS02006113    1.00   0.01  0.01  0.00  0.98  0.00  0.00  0.00  0.00  0.00
  WS02006111WS02006112    1.00   0.02  0.00  0.00  0.97  0.00  0.00  0.00  0.74  0.00
  WS02006112WS02006115    1.00   0.02  0.00  0.00  0.97  0.00  0.00  0.00  0.00  0.00
  WS02006113WS02006111    1.00   0.02  0.00  0.00  0.35  0.63  0.00  0.00  0.09  0.00
  WS02006115WS02006116    1.00   0.03  0.00  0.00  0.97  0.00  0.00  0.01  0.00  0.00
  WS02006116WS02004401    1.00   0.03  0.00  0.00  0.97  0.00  0.00  0.00  0.00  0.00
  WS02006228WS02006109    1.00   0.00  0.00  0.00  1.00  0.00  0.00  0.00  0.00  0.00
  WS02006229WS02006228    1.00   0.00  0.00  0.00  0.99  0.00  0.00  0.01  0.00  0.00
  WS02006230WS02006229    1.00   0.00  0.00  0.00  0.98  0.00  0.00  0.02  0.01  0.00
  WS02006231WS02006230    1.00   0.00  0.00  0.00  0.54  0.00  0.45  0.00  0.00  0.00
  WS02006232WS02006231    1.00   0.00  0.00  0.00  0.99  0.00  0.00  0.00  0.00  0.00
  WS02006234WS02006232    1.00   0.00  0.00  0.00  1.00  0.00  0.00  0.00  0.33  0.00
  WS02006235WS02006234    1.00   0.00  0.00  0.00  0.72  0.00  0.28  0.00  0.00  0.00
  WS02006238WS02006235    1.00   0.00  0.00  0.00  1.00  0.00  0.00  0.00  0.00  0.00
  WS02006239WS02006238    1.00   0.00  0.00  0.00  1.00  0.00  0.00  0.00  0.47  0.00
  WS02006240WS02006239    1.00   0.00  0.00  0.00  0.66  0.00  0.00  0.34  0.00  0.00
  WS02006242WS02006240    1.00   0.00  0.00  0.00  0.98  0.00  0.01  0.00  0.00  0.00
  WS02006243WS02006242    1.00   0.00  0.00  0.00  0.99  0.00  0.00  0.00  0.61  0.00
  WS02006245WS02006243    1.00   0.00  0.00  0.00  0.90  0.00  0.00  0.10  0.00  0.00
  WS02006247WS02006245    1.00   0.00  0.00  0.00  0.99  0.00  0.00  0.01  0.00  0.00
  WS02006248WS02006247    1.00   0.00  0.00  0.00  1.00  0.00  0.00  0.00  0.57  0.00
  WS02006249WS02006248    1.00   0.00  0.00  0.00  0.59  0.00  0.41  0.00  0.00  0.00
  WS02006251WS02006249    1.00   0.00  0.00  0.00  1.00  0.00  0.00  0.00  0.63  0.00
  WS02006252WS02006251    1.00   0.00  0.52  0.00  0.46  0.00  0.02  0.00  0.00  0.00
  WS02006253WS02006251    1.00   0.00  0.00  0.00  0.98  0.00  0.02  0.00  0.00  0.00
  WS02006256WS02006235    1.00   0.00  0.00  0.00  1.00  0.00  0.00  0.00  0.00  0.00
  WS02006280WS02006229    1.00   0.09  0.00  0.00  0.30  0.04  0.00  0.56  0.01  0.00
  WS02006284WS02006280    1.00   0.09  0.00  0.00  0.24  0.02  0.00  0.65  0.00  0.00
  WS02006287WS02006284    1.00   0.08  0.02  0.00  0.51  0.40  0.00  0.00  0.64  0.00
  WSF200WS02003060        1.00   0.00  0.06  0.00  0.44  0.50  0.00  0.00  0.61  0.00
  YS02001580YS02001583    1.00   0.21  0.40  0.00  0.40  0.00  0.00  0.00  0.64  0.00
  YS02001583YS02001586    1.00   0.26  0.28  0.00  0.46  0.00  0.00  0.00  0.64  0.00
  YS02001586YS02001590    1.00   0.09  0.00  0.00  0.65  0.03  0.00  0.23  0.34  0.00
  YS02001590YS02001593    1.00   0.09  0.00  0.00  0.27  0.00  0.64  0.00  0.00  0.00
  YS02001593YS02001596    1.00   0.09  0.00  0.00  0.30  0.01  0.00  0.60  0.02  0.00
  YS02001596YS02001600    1.00   0.09  0.00  0.00  0.38  0.02  0.00  0.51  0.04  0.00
  YS02001600YS02001601    1.00   0.09  0.00  0.00  0.91  0.00  0.00  0.00  0.58  0.00
  YS02001601YS02001602    1.00   0.09  0.00  0.00  0.91  0.00  0.00  0.00  0.00  0.00
  YS02001602YS02001605    1.00   0.09  0.00  0.00  0.91  0.00  0.00  0.00  0.00  0.00
  YS02001605YS02001607    1.00   0.09  0.00  0.00  0.91  0.00  0.00  0.00  0.00  0.00
  YS02001607YS02001610    1.00   0.09  0.00  0.00  0.91  0.00  0.00  0.00  0.01  0.00
  YS02001610YS02001613    1.00   0.09  0.00  0.00  0.91  0.00  0.00  0.00  0.00  0.00
  YS02001613YS02001616    1.00   0.09  0.00  0.00  0.91  0.00  0.00  0.00  0.00  0.00
  YS02001616YS02001619    1.00   0.09  0.00  0.00  0.91  0.00  0.00  0.00  0.00  0.00
  YS02001619YS02001622    1.00   0.09  0.00  0.00  0.91  0.00  0.00  0.00  0.27  0.00
  YS02001622YS02001625    1.00   0.09  0.00  0.00  0.91  0.00  0.00  0.00  0.03  0.00
  YS02001625YS02001629    1.00   0.09  0.02  0.00  0.34  0.00  0.55  0.00  0.00  0.00
  YS02001629YS02163301    1.00   0.09  0.00  0.00  0.90  0.00  0.00  0.00  0.00  0.00
  YS02001633YS02163601    1.00   0.00  0.01  0.00  0.99  0.00  0.00  0.00  0.14  0.00
  YS02001641YS02001644    1.00   0.00  0.00  0.00  0.99  0.00  0.00  0.00  0.00  0.00
  YS02001644YS02001647    1.00   0.00  0.10  0.00  0.90  0.00  0.00  0.00  0.00  0.00
  YS02001647YS02001649    1.00   0.00  0.10  0.00  0.63  0.27  0.00  0.00  0.56  0.00
  YS02001649YS02001757    1.00   0.00  0.00  0.00  0.72  0.28  0.00  0.00  0.42  0.00
  YS02001652YS02001649    1.00   0.00  0.00  0.00  0.98  0.02  0.00  0.00  0.71  0.00
  YS02001655YS02001652    1.00   0.00  0.00  0.00  0.38  0.01  0.00  0.60  0.04  0.00
  YS02001658YS02001655    1.00   0.00  0.09  0.00  0.67  0.24  0.00  0.00  0.61  0.00
  YS02001661YS02001658    1.00   0.09  0.00  0.00  0.50  0.41  0.00  0.00  0.64  0.00
  YS02001664YS02001661    1.00   0.09  0.00  0.00  0.76  0.15  0.00  0.00  0.83  0.00
  YS02001745YS02001748    1.00   0.00  0.00  0.00  0.25  0.01  0.00  0.74  0.04  0.00
  YS02001748YS02001751    1.00   0.00  0.00  0.00  0.79  0.21  0.00  0.00  0.73  0.00
  YS02001751YS02001754    1.00   0.00  0.00  0.00  0.35  0.01  0.00  0.64  0.02  0.00
  YS02001754YS02001757    1.00   0.00  0.00  0.00  1.00  0.00  0.00  0.00  0.77  0.00
  YS02001757CaochengTiaoxuchi    1.00   0.00  0.00  0.00  1.00  0.00  0.00  0.00  0.75  0.00
  YS02001759YS02001757    1.00   0.00  0.00  0.00  1.00  0.00  0.00  0.00  0.59  0.00
  YS02001762YS02001759    1.00   0.00  0.00  0.00  1.00  0.00  0.00  0.00  0.04  0.00
  YS02001765YS02001762    1.00   0.00  0.00  0.00  1.00  0.00  0.00  0.00  0.69  0.00
  YS02001767YS02001765    1.00   0.00  0.00  0.00  1.00  0.00  0.00  0.00  0.00  0.00
  YS02001770YS02001767    1.00   0.00  0.00  0.00  1.00  0.00  0.00  0.00  0.00  0.00
  YS02001774YS02001770    1.00   0.00  0.09  0.00  0.81  0.00  0.10  0.00  0.02  0.00
  YS02001779YS02001774    1.00   0.00  0.00  0.00  1.00  0.00  0.00  0.00  0.73  0.00
  YS02001783YS02001784    1.00   0.00  0.11  0.00  0.89  0.00  0.00  0.00  0.55  0.00
  YS02001784YS02001785    1.00   0.00  0.00  0.00  1.00  0.00  0.00  0.00  0.15  0.00
  YS02001786YS02001788    1.00   0.00  0.00  0.00  0.63  0.37  0.00  0.00  0.00  0.00
  YS02001788YS02001790    1.00   0.00  0.00  0.00  0.16  0.84  0.00  0.00  0.78  0.00
  YS02001790YS02001791    1.00   0.00  0.00  0.00  0.01  0.99  0.00  0.00  0.16  0.00
  YS02001791YS02001793    1.00   0.00  0.00  0.00  0.00  1.00  0.00  0.00  0.01  0.00
  YS02001793JiankangQianchi    1.00   0.00  0.00  0.00  0.91  0.08  0.00  0.00  0.98  0.00
  YS02001882YS02001884    1.00   0.10  0.00  0.00  0.90  0.00  0.00  0.00  0.00  0.00
  YS02001884YS02001887    1.00   0.06  0.03  0.00  0.92  0.00  0.00  0.00  0.00  0.00
  YS02001887YS02001890    1.00   0.00  0.00  0.00  0.96  0.00  0.03  0.00  0.00  0.00
  YS02001890YS02001895    1.00   0.00  0.10  0.00  0.90  0.00  0.00  0.00  0.00  0.00
  YS02001895YS02001898    1.00   0.10  0.00  0.00  0.88  0.00  0.02  0.00  0.00  0.00
  YS02001898YS02001901    1.00   0.10  0.00  0.00  0.90  0.00  0.00  0.00  0.01  0.00
  YS02001901YS02001904    1.00   0.10  0.00  0.00  0.90  0.00  0.00  0.00  0.00  0.00
  YS02001904YS02001907    1.00   0.00  0.10  0.00  0.90  0.00  0.00  0.00  0.00  0.00
  YS02001907YS02006553    1.00   0.00  0.02  0.00  0.97  0.00  0.00  0.00  0.00  0.00
  YS02001910YS02001907    1.00   0.00  0.00  0.00  0.97  0.00  0.00  0.03  0.12  0.00
  YS02001915YS02001910    1.00   0.00  0.00  0.00  0.97  0.03  0.00  0.00  0.13  0.00
  YS02001918YS02001915    1.00   0.00  0.00  0.00  0.97  0.02  0.00  0.00  0.71  0.00
  YS02001920YS02001918    1.00   0.00  0.00  0.00  1.00  0.00  0.00  0.00  0.00  0.00
  YS02001923YS02001920    1.00   0.00  0.00  0.00  1.00  0.00  0.00  0.00  0.89  0.00
  YS02001926YS02001923    1.00   0.00  0.06  0.00  0.13  0.00  0.81  0.00  0.00  0.00
  YS02001929YS02001926    1.00   0.00  0.09  0.00  0.91  0.00  0.00  0.00  0.80  0.00
  YS02006553YS02006556    1.00   0.01  0.00  0.00  0.99  0.00  0.00  0.00  0.03  0.00
  YS02006556YS02006558    1.00   0.00  0.00  0.00  1.00  0.00  0.00  0.00  0.00  0.00
  YS02006558YS02006561    1.00   0.11  0.00  0.00  0.12  0.77  0.00  0.00  0.17  0.00
  YS02006561YS02001783    1.00   0.11  0.00  0.00  0.18  0.71  0.00  0.00  0.66  0.00
  YS02163301YS02001633    1.00   0.00  0.09  0.00  0.91  0.00  0.00  0.00  0.00  0.00
  YS02163601YS02164001    1.00   0.00  0.07  0.00  0.93  0.00  0.00  0.00  0.00  0.00
  YS02164001YS02001641    1.00   0.01  0.06  0.00  0.93  0.00  0.00  0.00  0.05  0.00
  YSB1154YSB6556          1.00   0.09  0.00  0.00  0.91  0.00  0.00  0.00  0.01  0.00
  YSB1171HS02004479       1.00   0.04  0.00  0.00  0.95  0.00  0.00  0.01  0.10  0.00
  YSB1174YSB1171          1.00   0.05  0.02  0.00  0.93  0.00  0.00  0.00  0.00  0.00
  YSB6556YSB1171          1.00   0.04  0.04  0.00  0.91  0.00  0.00  0.00  0.00  0.00
  
  
  *************************
  Conduit Surcharge Summary
  *************************
  
  ----------------------------------------------------------------------------
                                                           Hours        Hours 
                         --------- Hours Full --------   Above Full   Capacity
  Conduit                Both Ends  Upstream  Dnstream   Normal Flow   Limited
  ----------------------------------------------------------------------------
  HS02004478WS02006287        0.71      0.71      0.92      0.01         0.01
  HS02004479HS02004480        0.92      0.92      0.94      0.01         0.01
  HS02004480HS02004478        0.84      0.91      0.84      1.88         0.84
  HS02004770HS02004777        0.80      0.80      0.80      0.12         0.07
  HS02004777HS02004785        0.75      0.75      0.80      0.01         0.01
  HS02004785HS02004788        0.73      0.75      0.73      1.57         0.61
  HS02004788HS02004792        0.73      0.73      0.87      0.01         0.01
  HS02004792HS02004799        0.87      0.87      1.02      0.01         0.01
  HS02004799HS02004480        0.91      0.91      1.02      1.16         0.01
  HS02004802HS02004478        0.85      0.85      0.93      0.26         0.01
  HS02004807HS02004802        0.90      0.90      0.92      0.43         0.44
  HS02004817HS02004807        0.90      0.90      1.55      0.01         0.01
  HS02004817HS02004824        0.74      0.74      1.55      0.01         0.01
  HS02004824HS02004830        0.70      0.70      0.74      0.01         0.01
  HS02004830HS02004837        0.66      0.66      0.70      0.01         0.01
  HS02004837HS02004842        0.66      0.66      0.82      0.01         0.01
  HS02004842HS02004848        0.62      0.62      0.82      0.01         0.01
  HS02004848HS02004852        0.62      0.62      0.65      0.02         0.01
  HS02004852HS02004856        0.65      0.65      0.67      0.02         0.01
  HS02004856HS02004862        0.64      0.64      0.68      0.01         0.01
  HS02004862HS02004870        0.68      0.68      0.70      0.26         0.26
  HS02004870HS02004876        0.70      0.70      0.79      0.01         0.01
  HS02004876HS02004881        0.77      0.79      0.77      1.72         0.76
  HS02004881HS02006253        0.77      0.77      2.19      0.01         0.01
  HS02004901HS02004770        0.80      0.80      0.80      0.13         0.01
  WS02003072WS02003073        0.01      0.01      0.01      2.58         0.01
  WS02004401WS02004402        1.75      1.75      1.77      1.62         1.61
  WS02004402WS02004403        1.77      1.77      1.78      1.75         1.73
  WS02004403WS02004404        1.78      1.78      1.96      0.01         0.06
  WS02004404WS02004405        1.92      1.96      1.92      3.27         1.92
  WS02004405WS02004406        1.88      1.92      1.88      2.31         1.88
  WS02004406WS02004407        0.08      0.08      1.88      0.01         0.01
  WS02004407WS02004409        0.08      0.08      1.37      0.01         0.01
  WS02004409WS02004410        1.31      1.37      1.31      1.70         1.31
  WS02004410WS02004411        1.21      1.31      1.21      1.72         1.21
  WS02004411WS02004412        1.08      1.21      1.08      1.74         1.08
  WS02004412WS02004413        1.08      1.08      1.55      0.01         0.01
  WS02004413WS02003067        0.01      0.01      1.55      0.01         0.01
  WS02006109WS02006110        2.28      2.28      2.44      2.29         0.01
  WS02006110WS02006113        1.52      1.52      2.43      0.39         0.01
  WS02006111WS02006112        1.51      1.51      2.53      0.01         0.01
  WS02006112WS02006115        1.71      1.71      2.32      0.01         0.01
  WS02006113WS02006111        1.51      1.52      1.52      1.59         1.51
  WS02006115WS02006116        1.72      1.72      1.72      1.70         1.69
  WS02006116WS02004401        1.74      1.74      1.75      1.73         1.72
  WS02006228WS02006109        2.42      2.44      2.42      2.78         2.42
  WS02006229WS02006228        2.42      2.42      2.42      2.56         2.42
  WS02006230WS02006229        2.46      2.47      2.46      3.28         1.05
  WS02006231WS02006230        2.03      2.03      2.28      2.97         1.32
  WS02006232WS02006231        2.27      2.27      2.34      0.01         0.20
  WS02006234WS02006232        2.29      2.29      2.34      0.01         0.01
  WS02006235WS02006234        2.28      2.28      2.29      2.62         1.29
  WS02006238WS02006235        2.29      2.29      2.31      0.01         0.54
  WS02006239WS02006238        2.29      2.29      2.30      1.79         0.55
  WS02006240WS02006239        2.27      2.27      2.27      1.77         0.54
  WS02006242WS02006240        2.26      2.26      2.28      1.90         1.26
  WS02006243WS02006242        2.25      2.25      2.27      0.01         0.01
  WS02006245WS02006243        2.23      2.23      2.24      0.62         0.51
  WS02006247WS02006245        2.23      2.23      2.23      2.28         0.77
  WS02006248WS02006247        2.22      2.22      2.23      0.01         0.01
  WS02006249WS02006248        2.21      2.21      2.21      0.78         0.01
  WS02006251WS02006249        2.21      2.21      2.21      2.22         2.11
  WS02006252WS02006251        2.31      2.31      2.32      1.76         0.18
  WS02006253WS02006251        2.21      2.21      2.21      1.07         0.01
  WS02006256WS02006235        3.00      3.01      4.68      0.77         0.01
  WS02006280WS02006229        1.08      1.08      1.28      0.01         0.01
  WS02006284WS02006280        0.95      0.95      1.06      0.01         0.01
  WS02006287WS02006284        0.83      0.83      0.96      0.47         0.48
  YS02001580YS02001583        0.89      0.89      0.96      0.01         0.01
  YS02001583YS02001586        0.90      0.90      1.07      0.01         0.01
  YS02001586YS02001590        1.08      1.08      1.17      0.01         0.01
  YS02001590YS02001593        1.17      1.17      1.19      1.21         0.01
  YS02001593YS02001596        1.18      1.18      1.31      0.01         0.01
  YS02001596YS02001600        1.37      1.37      1.45      0.01         0.01
  YS02001600YS02001601        1.50      1.50      1.73      0.01         0.01
  YS02001601YS02001602        1.64      1.64      1.76      1.44         0.01
  YS02001602YS02001605        1.60      1.60      1.64      2.47         0.01
  YS02001605YS02001607        1.56      1.60      1.57      1.67         1.55
  YS02001607YS02001610        1.19      1.19      1.22      0.01         0.01
  YS02001610YS02001613        1.19      1.19      1.22      0.01         0.01
  YS02001613YS02001616        1.14      1.14      1.19      0.01         0.01
  YS02001616YS02001619        1.12      1.12      1.14      0.13         0.14
  YS02001619YS02001622        1.12      1.12      1.12      1.10         0.97
  YS02001622YS02001625        1.12      1.12      1.32      0.01         0.01
  YS02001625YS02001629        1.05      1.05      1.32      0.01         0.01
  YS02001629YS02163301        1.32      1.32      1.33      0.07         0.11
  YS02001633YS02163601        1.35      1.35      1.39      0.17         0.22
  YS02001641YS02001644        1.29      1.31      1.29      1.79         1.26
  YS02001644YS02001647        1.06      1.06      1.29      0.01         0.01
  YS02001647YS02001649        1.06      1.06      1.21      0.01         0.01
  YS02001649YS02001757        1.21      1.21      1.27      0.08         0.04
  YS02001652YS02001649        1.03      1.03      1.21      0.01         0.01
  YS02001655YS02001652        0.79      0.79      1.00      0.01         0.01
  YS02001658YS02001655        0.45      0.45      0.79      0.01         0.01
  YS02001661YS02001658        0.15      0.15      0.45      0.01         0.01
  YS02001664YS02001661        0.01      0.01      0.21      0.01         0.01
  YS02001745YS02001748        0.01      0.01      0.36      0.01         0.01
  YS02001748YS02001751        0.41      0.41      0.65      0.01         0.01
  YS02001751YS02001754        0.64      0.64      0.92      0.01         0.01
  YS02001754YS02001757        0.97      0.97      1.27      0.01         0.01
  YS02001757CaochengTiaoxuchi        1.27      1.27      1.75      0.44         0.44
  YS02001759YS02001757        1.20      1.20      1.27      0.01         0.02
  YS02001762YS02001759        1.17      1.17      1.20      0.01         0.02
  YS02001765YS02001762        1.13      1.13      1.17      0.01         0.01
  YS02001767YS02001765        1.09      1.10      1.13      0.01         0.02
  YS02001770YS02001767        1.08      1.08      1.10      0.74         0.65
  YS02001774YS02001770        1.06      1.06      1.16      0.01         0.01
  YS02001779YS02001774        0.89      0.89      1.16      0.01         0.01
  YS02001783YS02001784        0.71      0.74      0.71      0.93         0.71
  YS02001784YS02001785        0.59      0.71      0.59      1.25         0.59
  YS02001786YS02001788        0.01      0.59      0.01      1.07         0.01
  YS02001790YS02001791        0.01      0.01      0.01      0.70         0.01
  YS02001793JiankangQianchi        0.01      0.01      7.68      0.01         0.01
  YS02001882YS02001884        0.67      0.67      0.69      0.01         0.01
  YS02001884YS02001887        0.72      0.72      0.73      0.01         0.01
  YS02001887YS02001890        0.75      0.75      0.76      0.22         0.01
  YS02001890YS02001895        0.66      0.66      0.78      0.01         0.01
  YS02001895YS02001898        0.66      0.66      0.66      0.01         0.01
  YS02001898YS02001901        0.67      0.67      0.72      0.01         0.01
  YS02001901YS02001904        0.70      0.70      0.72      0.01         0.01
  YS02001904YS02001907        0.70      0.70      1.05      0.01         0.01
  YS02001907YS02006553        1.26      1.26      1.35      0.01         0.01
  YS02001910YS02001907        0.78      0.78      1.01      0.10         0.10
  YS02001915YS02001910        0.67      0.67      0.78      0.01         0.01
  YS02001918YS02001915        0.57      0.57      0.67      0.01         0.01
  YS02001920YS02001918        0.57      0.57      0.59      0.01         0.01
  YS02001923YS02001920        0.52      0.52      0.59      0.01         0.01
  YS02001926YS02001923        0.24      0.24      0.27      0.01         0.01
  YS02001929YS02001926        0.13      0.13      0.27      0.01         0.01
  YS02006553YS02006556        0.89      0.89      1.04      0.01         0.01
  YS02006556YS02006558        0.97      0.97      1.07      0.01         0.01
  YS02006558YS02006561        0.61      0.88      0.61      1.19         0.61
  YS02006561YS02001783        0.54      0.54      0.74      0.01         0.01
  YS02163301YS02001633        1.33      1.33      1.37      0.01         0.01
  YS02163601YS02164001        1.31      1.31      1.39      0.09         0.01
  YS02164001YS02001641        1.31      1.31      1.31      0.78         0.76
  YSB1154YSB6556              0.99      0.99      1.19      0.08         0.01
  YSB1171HS02004479           0.87      0.87      1.20      0.01         0.01
  YSB1174YSB1171              1.07      1.07      1.50      0.01         0.01
  YSB6556YSB1171              0.99      0.99      1.61      0.01         0.01
  
  
  ***************
  Pumping Summary
  ***************
  
  ---------------------------------------------------------------------------------------------------------
                                                  Min       Avg       Max     Total     Power    % Time Off
                        Percent   Number of      Flow      Flow      Flow    Volume     Usage    Pump Curve
  Pump                 Utilized   Start-Ups       LPS       LPS       LPS  10^6 ltr     Kw-hr    Low   High
  ---------------------------------------------------------------------------------------------------------
  CC-R1                   25.67           2      0.00    683.00    683.00     5.049     95.94    0.0   18.7
  CC-R2                   24.67           2      0.00    683.00    683.00     4.853     92.30    0.0   19.4
  CC-S1                   28.05           2      0.00    200.00    200.00     1.616     10.24    0.0    0.0
  CC-S2                   26.70           2      0.00    200.00    200.00     1.538      9.70    0.0    0.0
  JK-R1                   10.37           6      0.00   1000.00   1000.00     2.987     28.32    0.0    0.0
  JK-R2                    0.16           1      0.00   1000.00   1000.00     0.047      0.36    0.0    0.0
  JK-S                    23.13           3      0.00    300.00    300.00     1.998     32.57    0.0    0.0
  XR-1                    97.91           2      0.00     95.00     95.00     2.679      9.62    0.0    0.0
  XR-2                    93.94           2      0.00     95.00     95.00     2.570      8.78    0.0    0.0
  XR-3                     0.00           1      0.00     95.00     95.00     0.000      0.00    0.0    0.0
  XR-4                     0.00           1      0.00     95.00     95.00     0.000      0.00    0.0    0.0
  

  Analysis begun on:  Tue Jun 20 17:14:42 2023
  Analysis ended on:  Tue Jun 20 17:14:48 2023
  Total elapsed time: 00:00:06