
  OWA STORM WATER MANAGEMENT MODEL - VERSION v5.1.14 (OWA 2022-07-31)
  --------------------------------------------------------------

  WARNING 04: minimum elevation drop used for Conduit WS02004404WS02004405
  WARNING 03: negative offset ignored for Link YS02001904YS02001907
  
  *********************************************************
  NOTE: The summary statistics displayed in this report are
  based on results found at every computational time step,  
  not just on results from each reporting time step.
  *********************************************************
  
  ****************
  Analysis Options
  ****************
  Flow Units ............... LPS
  Process Models:
    Rainfall/Runoff ........ YES
    RDII ................... NO
    Snowmelt ............... NO
    Groundwater ............ NO
    Flow Routing ........... YES
    Ponding Allowed ........ NO
    Water Quality .......... NO
  Infiltration Method ...... HORTON
  Flow Routing Method ...... DYNWAVE
  Surcharge Method ......... EXTRAN
  Starting Date ............ 08/28/2015 08:00:00
  Ending Date .............. 08/28/2015 16:00:00
  Antecedent Dry Days ...... 8.0
  Report Time Step ......... 00:01:00
  Wet Time Step ............ 00:01:00
  Dry Time Step ............ 00:01:00
  Routing Time Step ........ 30.00 sec
  Variable Time Step ....... YES
  Maximum Trials ........... 8
  Number of Threads ........ 4
  Head Tolerance ........... 0.001500 m
  
  
  **************************        Volume         Depth
  Runoff Quantity Continuity     hectare-m            mm
  **************************     ---------       -------
  Total Precipitation ......         1.641        27.097
  Evaporation Loss .........         0.000         0.000
  Infiltration Loss ........         0.207         3.422
  Surface Runoff ...........         1.374        22.679
  Final Storage ............         0.061         1.003
  Continuity Error (%) .....        -0.025
  
  
  **************************        Volume        Volume
  Flow Routing Continuity        hectare-m      10^6 ltr
  **************************     ---------     ---------
  Dry Weather Inflow .......         0.630         6.296
  Wet Weather Inflow .......         1.374        13.738
  Groundwater Inflow .......         0.000         0.000
  RDII Inflow ..............         0.000         0.000
  External Inflow ..........         0.105         1.045
  External Outflow .........         1.686        16.863
  Flooding Loss ............         0.369         3.692
  Evaporation Loss .........         0.000         0.000
  Exfiltration Loss ........         0.000         0.000
  Initial Stored Volume ....         0.303         3.031
  Final Stored Volume ......         0.364         3.636
  Continuity Error (%) .....        -0.340
  
  
  *************************
  Highest Continuity Errors
  *************************
  Node YS02001884 (5.78%)
  Node HS02004842 (4.09%)
  Node YS02001774 (3.93%)
  Node YS02001583 (-3.24%)
  Node HS02004817 (1.74%)
  
  
  ***************************
  Time-Step Critical Elements
  ***************************
  Link WS02006280WS02006229 (62.31%)
  Link WS02006238WS02006235 (10.36%)
  Link WS02004404WS02004405 (7.98%)
  Link WS02003066WSF200 (3.24%)
  Link WS02004403WS02004404 (2.35%)
  
  
  ********************************
  Highest Flow Instability Indexes
  ********************************
  Link WS02006113WS02006111 (16)
  Link WS02006252WS02006251 (10)
  Link WS02006111WS02006112 (10)
  Link WS02006238WS02006235 (10)
  Link WS02006229WS02006228 (10)
  
  
  *************************
  Routing Time Step Summary
  *************************
  Minimum Time Step           :     0.01 sec
  Average Time Step           :     2.89 sec
  Maximum Time Step           :     6.46 sec
  Percent in Steady State     :    -0.00
  Average Iterations per Step :     2.69
  Percent Not Converging      :     6.56
  
  
  ***************************
  Subcatchment Runoff Summary
  ***************************
  
  ------------------------------------------------------------------------------------------------------------------------------
                            Total      Total      Total      Total     Imperv       Perv      Total       Total     Peak  Runoff
                           Precip      Runon       Evap      Infil     Runoff     Runoff     Runoff      Runoff   Runoff   Coeff
  Subcatchment                 mm         mm         mm         mm         mm         mm         mm    10^6 ltr      LPS
  ------------------------------------------------------------------------------------------------------------------------------
  sub0                      27.10       0.00       0.00       0.93      23.94       0.97      24.92        0.02    13.56   0.920
  sub1                      27.10       0.00       0.00       1.53      22.87       1.45      24.32        0.16    78.86   0.897
  sub10                     27.10       0.00       0.00       1.09      23.64       1.08      24.72        0.27   138.29   0.912
  sub11                     27.10       0.00       0.00       1.08      23.66       1.09      24.75        0.29   158.68   0.914
  sub12                     27.10       0.00       0.00       1.75      22.39       1.77      24.17        0.21   129.96   0.892
  sub14                     27.10       0.00       0.00       1.22      23.40       1.22      24.61        0.23   124.05   0.908
  sub15                     27.10       0.00       0.00       4.62      17.99       3.51      21.51        0.37   171.69   0.794
  sub16                     27.10       0.00       0.00       4.84      17.24       4.11      21.35        0.22   117.72   0.788
  sub17                     27.10       0.00       0.00       4.71      17.50       3.96      21.46        0.18    95.66   0.792
  sub2                      27.10       0.00       0.00       6.36      16.17       3.67      19.84        0.18    72.08   0.732
  sub22                     27.10       0.00       0.00       6.91      14.66       4.74      19.41        1.23   555.72   0.716
  sub23                     27.10       0.00       0.00       5.70      16.21       4.33      20.53        0.98   470.32   0.758
  sub3                      27.10       0.00       0.00       6.74      16.13       3.29      19.42        0.44   151.26   0.717
  sub4                      27.10       0.00       0.00       1.67      22.71       1.32      24.03        0.50   170.28   0.887
  sub5                      27.10       0.00       0.00       0.95      23.89       0.95      24.84        0.28   139.02   0.917
  sub60                     27.10       0.00       0.00       1.64      22.64       1.61      24.25        0.32   177.07   0.895
  sub61                     27.10       0.00       0.00       2.36      21.35       2.25      23.60        0.43   240.59   0.871
  sub62                     27.10       0.00       0.00       1.09      23.64       1.08      24.72        0.68   335.89   0.912
  sub63                     27.10       0.00       0.00       4.28      18.26       3.58      21.84        0.50   251.86   0.806
  sub64                     27.10       0.00       0.00       2.17      21.82       1.89      23.72        0.57   257.14   0.875
  sub65                     27.10       0.00       0.00       1.88      22.32       1.64      23.96        0.66   284.82   0.884
  sub66                     27.10       0.00       0.00       5.04      18.17       2.82      20.99        0.98   341.56   0.775
  sub67                     27.10       0.00       0.00       1.07      23.68       1.10      24.78        0.46   283.29   0.915
  sub68                     27.10       0.00       0.00       1.95      22.11       1.84      23.95        0.66   342.34   0.884
  sub69                     27.10       0.00       0.00       1.65      22.92       2.41      25.33        0.94   402.30   0.935
  sub7                      27.10       0.00       0.00       1.21      23.41       1.23      24.64        0.08    47.52   0.909
  sub70                     27.10       0.00       0.00       5.17      17.73       4.04      21.77        0.63   201.98   0.803
  sub71                     27.10       0.00       0.00       1.11      23.60       1.06      24.66        0.64   282.22   0.910
  sub72                     27.10       0.00       0.00       0.99      23.80       0.91      24.71        0.34   130.84   0.912
  sub8                      27.10       0.00       0.00       1.22      23.40       1.22      24.62        0.16    85.09   0.909
  sub9                      27.10       0.00       0.00       1.22      23.40       1.22      24.62        0.12    63.30   0.908
  
  
  ******************
  Node Depth Summary
  ******************
  
  ---------------------------------------------------------------------------------
                                 Average  Maximum  Maximum  Time of Max    Reported
                                   Depth    Depth      HGL   Occurrence   Max Depth
  Node                 Type       Meters   Meters   Meters  days hr:min      Meters
  ---------------------------------------------------------------------------------
  HS02004478           JUNCTION     0.14     0.77    10.00     0  01:45        0.77
  HS02004479           JUNCTION     0.21     0.93    10.13     0  01:45        0.92
  HS02004480           JUNCTION     0.18     0.88    10.13     0  01:44        0.88
  HS02004770           JUNCTION     0.19     0.78    10.61     0  01:43        0.74
  HS02004777           JUNCTION     0.22     0.77    10.57     0  01:43        0.74
  HS02004785           JUNCTION     0.11     0.59    10.49     0  01:44        0.58
  HS02004788           JUNCTION     0.07     0.55    10.45     0  01:44        0.55
  HS02004792           JUNCTION     0.11     1.24    10.76     0  01:40        0.88
  HS02004799           JUNCTION     0.23     1.09    10.30     0  01:40        1.03
  HS02004802           JUNCTION     0.24     0.93    10.06     0  01:41        0.87
  HS02004807           JUNCTION     0.21     0.99    10.16     0  01:41        0.83
  HS02004817           JUNCTION     0.51     1.19    10.04     0  01:41        1.16
  HS02004824           JUNCTION     0.08     0.61    10.01     0  01:44        0.61
  HS02004830           JUNCTION     0.08     0.54    10.01     0  01:45        0.54
  HS02004837           JUNCTION     0.06     0.42    10.00     0  01:45        0.42
  HS02004842           JUNCTION     0.35     0.81    10.08     0  01:43        0.81
  HS02004848           JUNCTION     0.04     0.37     9.97     0  01:45        0.37
  HS02004852           JUNCTION     0.04     0.39     9.91     0  01:46        0.39
  HS02004856           JUNCTION     0.11     0.43     9.86     0  01:44        0.43
  HS02004862           JUNCTION     0.06     0.38     9.77     0  01:44        0.38
  HS02004870           JUNCTION     0.05     0.34     9.63     0  01:44        0.34
  HS02004876           JUNCTION     0.09     0.43     9.46     0  01:47        0.43
  HS02004881           JUNCTION     0.03     0.28     9.30     0  01:47        0.28
  HS02004901           JUNCTION     0.20     0.80    10.62     0  01:43        0.74
  WS02001211           JUNCTION     0.63     0.83     5.67     0  01:49        0.82
  WS02001212           JUNCTION     0.37     0.59     5.66     0  01:48        0.58
  WS02001213           JUNCTION     0.58     0.92     5.68     0  01:48        0.92
  WS02003059           JUNCTION     0.64     0.93     5.62     0  01:50        0.92
  WS02003060           JUNCTION     0.36     0.66     5.59     0  01:51        0.66
  WS02003066           JUNCTION     0.21     0.44     5.99     0  01:42        0.43
  WS02003067           JUNCTION     0.52     0.94     6.26     0  01:42        0.88
  WS02003069           JUNCTION     0.41     0.74     5.33     0  01:51        0.74
  WS02003072           JUNCTION     0.47     0.78     5.16     0  01:50        0.78
  WS02003073           JUNCTION     0.28     0.50     4.56     0  01:51        0.50
  WS02004138           JUNCTION     0.13     0.14     7.39     0  00:29        0.14
  WS02004139           JUNCTION     0.57     0.75     5.66     0  01:46        0.74
  WS02004401           JUNCTION     0.71     2.66     8.66     0  01:40        1.69
  WS02004402           JUNCTION     0.73     2.50     8.46     0  01:40        1.63
  WS02004403           JUNCTION     0.73     2.20     8.13     0  01:40        1.55
  WS02004404           JUNCTION     0.80     2.13     7.98     0  01:40        1.55
  WS02004405           JUNCTION     0.79     2.00     7.85     0  01:40        1.50
  WS02004406           JUNCTION     0.78     2.22     8.05     0  01:40        1.40
  WS02004407           JUNCTION     0.22     0.73     7.04     0  01:45        0.73
  WS02004409           JUNCTION     0.48     1.25     7.02     0  01:45        1.24
  WS02004410           JUNCTION     0.49     1.20     6.92     0  01:42        1.18
  WS02004411           JUNCTION     0.50     1.19     6.87     0  01:42        1.12
  WS02004412           JUNCTION     0.51     1.14     6.78     0  01:42        1.04
  WS02004413           JUNCTION     0.65     2.29     7.76     0  01:42        1.11
  WS02006109           JUNCTION     0.87     2.64     9.26     0  01:40        2.49
  WS02006110           JUNCTION     0.82     2.76     9.34     0  01:40        2.18
  WS02006111           JUNCTION     0.35     2.68     9.39     0  01:40        1.50
  WS02006112           JUNCTION     0.90     2.68     8.56     0  01:40        2.13
  WS02006113           JUNCTION     0.41     2.73     9.62     0  01:40        1.58
  WS02006115           JUNCTION     0.62     3.05     9.19     0  01:40        1.76
  WS02006116           JUNCTION     0.69     2.82     8.86     0  01:40        1.77
  WS02006228           JUNCTION     0.91     3.03     9.68     0  01:40        2.74
  WS02006229           JUNCTION     0.91     3.20     9.89     0  01:40        2.87
  WS02006230           JUNCTION     0.88     2.65     9.39     0  01:40        2.65
  WS02006231           JUNCTION     0.62     2.21     9.33     0  01:42        2.21
  WS02006232           JUNCTION     0.71     2.18     9.22     0  01:40        2.18
  WS02006234           JUNCTION     0.61     1.96     9.12     0  01:39        1.96
  WS02006235           JUNCTION     0.63     2.00     9.16     0  01:39        2.00
  WS02006238           JUNCTION     0.65     2.05     9.20     0  01:39        2.05
  WS02006239           JUNCTION     0.60     2.03     9.24     0  01:39        1.89
  WS02006240           JUNCTION     0.56     2.10     9.39     0  01:39        1.68
  WS02006242           JUNCTION     0.60     1.55     8.82     0  01:39        1.55
  WS02006243           JUNCTION     0.51     1.48     8.90     0  01:39        1.37
  WS02006245           JUNCTION     0.49     1.56     9.04     0  01:40        1.27
  WS02006247           JUNCTION     0.50     1.47     8.97     0  01:40        1.25
  WS02006248           JUNCTION     0.45     1.10     8.69     0  01:40        1.10
  WS02006249           JUNCTION     0.47     1.09     8.69     0  01:40        1.09
  WS02006251           JUNCTION     0.50     1.88     9.55     0  01:50        1.60
  WS02006252           JUNCTION     0.32     1.50     9.74     0  00:00        1.16
  WS02006253           JUNCTION     0.54     2.11     9.75     0  01:40        1.75
  WS02006256           JUNCTION     1.06     2.35     9.28     0  00:00        2.35
  WS02006280           JUNCTION     0.20     1.68     9.95     0  01:40        1.36
  WS02006284           JUNCTION     0.47     1.68    10.07     0  01:40        1.40
  WS02006287           JUNCTION     0.20     1.04    10.00     0  01:41        1.03
  WSF200               JUNCTION     0.20     0.54     5.77     0  01:42        0.52
  YS02001580           JUNCTION     0.02     0.84     9.38     0  01:44        0.57
  YS02001583           JUNCTION     0.06     0.85     9.35     0  01:44        0.62
  YS02001586           JUNCTION     0.11     1.13     9.30     0  01:44        0.94
  YS02001590           JUNCTION     0.20     1.37     9.23     0  01:44        1.26
  YS02001593           JUNCTION     0.13     1.29     9.16     0  01:44        1.25
  YS02001596           JUNCTION     0.20     1.66     9.08     0  01:44        1.64
  YS02001600           JUNCTION     0.26     1.86     8.99     0  01:44        1.84
  YS02001601           JUNCTION     0.45     2.06     8.90     0  01:43        2.06
  YS02001602           JUNCTION     0.37     1.87     8.77     0  01:44        1.87
  YS02001605           JUNCTION     0.33     1.75     8.65     0  01:44        1.75
  YS02001607           JUNCTION     0.33     1.47     8.32     0  01:44        1.47
  YS02001610           JUNCTION     0.37     1.49     8.29     0  01:44        1.49
  YS02001613           JUNCTION     0.33     1.36     8.20     0  01:44        1.36
  YS02001616           JUNCTION     0.26     1.24     8.15     0  01:44        1.16
  YS02001619           JUNCTION     0.24     1.20     8.13     0  01:44        1.11
  YS02001622           JUNCTION     0.22     1.18     8.08     0  01:44        1.08
  YS02001625           JUNCTION     0.48     1.39     8.00     0  01:44        1.31
  YS02001629           JUNCTION     0.34     1.39     7.94     0  01:44        1.30
  YS02001633           JUNCTION     0.42     1.40     7.85     0  01:44        1.39
  YS02001641           JUNCTION     0.40     1.16     7.60     0  01:44        1.13
  YS02001644           JUNCTION     0.40     1.08     7.52     0  01:44        1.07
  YS02001647           JUNCTION     0.18     0.71     7.32     0  01:44        0.70
  YS02001649           JUNCTION     0.21     0.80     7.19     0  01:46        0.79
  YS02001652           JUNCTION     0.10     0.59     7.19     0  01:45        0.59
  YS02001655           JUNCTION     0.06     0.34     7.19     0  01:45        0.32
  YS02001658           JUNCTION     0.05     0.22     7.36     0  01:40        0.22
  YS02001661           JUNCTION     0.11     0.28     7.69     0  01:41        0.28
  YS02001664           JUNCTION     0.04     0.19     8.12     0  01:41        0.19
  YS02001745           JUNCTION     0.04     0.18     7.69     0  01:40        0.18
  YS02001748           JUNCTION     0.05     0.20     7.28     0  01:40        0.20
  YS02001751           JUNCTION     0.05     0.20     7.08     0  01:42        0.20
  YS02001754           JUNCTION     0.08     0.45     7.06     0  01:46        0.45
  YS02001757           JUNCTION     0.21     0.79     7.05     0  01:47        0.79
  YS02001759           JUNCTION     0.16     0.69     7.06     0  01:47        0.69
  YS02001762           JUNCTION     0.15     0.66     7.06     0  01:48        0.66
  YS02001765           JUNCTION     0.13     0.62     7.07     0  01:48        0.62
  YS02001767           JUNCTION     0.14     0.59     7.08     0  01:47        0.59
  YS02001770           JUNCTION     0.15     0.60     7.09     0  01:47        0.60
  YS02001774           JUNCTION     0.21     0.67     7.10     0  01:47        0.67
  YS02001779           JUNCTION     0.05     0.41     7.10     0  01:47        0.41
  YS02001783           JUNCTION     0.18     0.79     6.93     0  01:47        0.79
  YS02001784           JUNCTION     0.21     0.77     6.84     0  01:47        0.77
  YS02001786           JUNCTION     0.18     0.63     6.66     0  01:48        0.63
  YS02001788           JUNCTION     0.13     0.50     6.47     0  01:48        0.50
  YS02001790           JUNCTION     0.16     0.59     6.23     0  01:48        0.58
  YS02001791           JUNCTION     0.10     0.35     5.82     0  01:48        0.35
  YS02001793           JUNCTION     0.05     0.18     5.01     0  01:48        0.18
  YS02001882           JUNCTION     0.22     0.84     7.56     0  01:46        0.83
  YS02001884           JUNCTION     0.31     0.94     7.55     0  01:46        0.93
  YS02001887           JUNCTION     0.39     1.01     7.55     0  01:46        1.01
  YS02001890           JUNCTION     0.42     1.04     7.55     0  01:45        1.04
  YS02001895           JUNCTION     0.19     0.80     7.54     0  01:47        0.80
  YS02001898           JUNCTION     0.20     0.81     7.55     0  01:47        0.81
  YS02001901           JUNCTION     0.31     0.94     7.55     0  01:47        0.93
  YS02001904           JUNCTION     0.29     0.92     7.55     0  01:47        0.91
  YS02001907           JUNCTION     0.61     1.25     7.54     0  01:47        1.25
  YS02001910           JUNCTION     0.41     1.05     7.55     0  01:47        1.04
  YS02001915           JUNCTION     0.22     0.84     7.56     0  01:47        0.84
  YS02001918           JUNCTION     0.08     0.49     7.56     0  01:47        0.49
  YS02001920           JUNCTION     0.16     0.56     7.57     0  01:48        0.56
  YS02001923           JUNCTION     0.05     0.31     7.57     0  01:47        0.29
  YS02001926           JUNCTION     0.11     0.30     7.75     0  01:45        0.30
  YS02001929           JUNCTION     0.05     0.17     7.86     0  01:44        0.17
  YS02006553           JUNCTION     0.61     1.25     7.53     0  01:47        1.24
  YS02006556           JUNCTION     0.58     1.20     7.51     0  01:47        1.20
  YS02006558           JUNCTION     0.63     1.24     7.50     0  01:47        1.23
  YS02006561           JUNCTION     0.11     0.41     7.07     0  01:47        0.40
  YS02163301           JUNCTION     0.36     1.38     7.90     0  01:44        1.35
  YS02163601           JUNCTION     0.45     1.33     7.73     0  01:44        1.32
  YS02164001           JUNCTION     0.39     1.20     7.66     0  01:44        1.16
  YSB1154              JUNCTION     0.35     1.09    10.15     0  01:44        1.08
  YSB1171              JUNCTION     0.49     1.24    10.14     0  01:44        1.22
  YSB1174              JUNCTION     0.30     1.03    10.14     0  01:44        1.02
  YSB6556              JUNCTION     0.24     0.97    10.14     0  01:44        0.96
  CC-1                 OUTFALL      0.00     0.00     0.00     0  00:00        0.00
  CC-2                 OUTFALL      0.00     0.00     0.00     0  00:00        0.00
  JK-1                 OUTFALL      0.00     0.00     0.00     0  00:00        0.00
  JK-2                 OUTFALL      0.00     0.00     0.00     0  00:00        0.00
  WSC                  OUTFALL      0.28     0.49     1.16     0  01:51        0.49
  CC-storage           STORAGE      0.73     1.29     6.79     0  02:10        1.29
  JK-storage           STORAGE      2.34     4.20     5.00     0  01:43        4.18
  XR-storage           STORAGE      7.88     9.26     7.26     0  08:00        9.26
  
  
  *******************
  Node Inflow Summary
  *******************
  
  -------------------------------------------------------------------------------------------------
                                  Maximum  Maximum                  Lateral       Total        Flow
                                  Lateral    Total  Time of Max      Inflow      Inflow     Balance
                                   Inflow   Inflow   Occurrence      Volume      Volume       Error
  Node                 Type           LPS      LPS  days hr:min    10^6 ltr    10^6 ltr     Percent
  -------------------------------------------------------------------------------------------------
  HS02004478           JUNCTION      0.00  1858.04     0  01:40           0        4.72      -0.016
  HS02004479           JUNCTION      0.00   269.22     0  01:40           0       0.502       0.121
  HS02004480           JUNCTION      0.00  1596.98     0  01:41           0        3.57       0.053
  HS02004770           JUNCTION    470.32   584.10     0  01:41       0.979         1.2       0.254
  HS02004777           JUNCTION      0.03   579.90     0  01:41    0.000864         1.2       0.431
  HS02004785           JUNCTION      0.15   583.23     0  01:43     0.00432         1.2       0.043
  HS02004788           JUNCTION    173.36   732.79     0  01:43       0.418        1.62       0.024
  HS02004792           JUNCTION    556.00  1242.26     0  01:40        1.23        2.85      -0.008
  HS02004799           JUNCTION    124.05  1338.63     0  01:44       0.234        3.08       0.071
  HS02004802           JUNCTION      0.00   338.81     0  01:55           0        1.17       0.315
  HS02004807           JUNCTION    158.68   324.54     0  01:54       0.288        1.18       0.322
  HS02004817           JUNCTION      0.60   250.51     0  01:58      0.0173       0.915       1.773
  HS02004824           JUNCTION    170.33   246.54     0  01:42       0.503       0.967       0.058
  HS02004830           JUNCTION      0.15   225.59     0  01:42     0.00432       0.533       0.235
  HS02004837           JUNCTION    144.64   367.47     0  01:42       0.456       0.649       0.128
  HS02004842           JUNCTION      0.00   366.91     0  01:42           0       0.313       4.266
  HS02004848           JUNCTION    151.26   494.02     0  01:43       0.437        0.62       0.013
  HS02004852           JUNCTION      0.00   461.15     0  01:43           0       0.503       0.012
  HS02004856           JUNCTION     63.30   506.85     0  01:44       0.118       0.622       0.230
  HS02004862           JUNCTION     72.28   575.60     0  01:44       0.191       0.811       0.018
  HS02004870           JUNCTION     85.09   655.02     0  01:44       0.157       0.968       0.013
  HS02004876           JUNCTION     78.86   735.03     0  01:45       0.162        1.13       0.045
  HS02004881           JUNCTION     47.52   782.56     0  01:45       0.083        1.21       0.054
  HS02004901           JUNCTION    117.72   117.72     0  01:40       0.224       0.224       0.780
  WS02001211           JUNCTION      7.35   348.26     0  01:46       0.212        5.45       0.610
  WS02001212           JUNCTION      0.00   404.53     0  01:44           0        5.42       0.290
  WS02001213           JUNCTION      0.00   368.95     0  01:44           0        5.41       0.328
  WS02003059           JUNCTION      0.00   419.10     0  01:43           0        5.42       0.595
  WS02003060           JUNCTION     16.53  1438.32     0  01:50       0.476        12.3       0.122
  WS02003066           JUNCTION      0.00  1188.66     0  01:45           0        6.43       0.024
  WS02003067           JUNCTION      0.00  1181.30     0  01:45           0        6.44       0.070
  WS02003069           JUNCTION      0.32  1408.41     0  01:51     0.00922        12.2       0.130
  WS02003072           JUNCTION      0.00  1401.38     0  01:52           0        12.2       0.175
  WS02003073           JUNCTION      1.82  1403.33     0  01:50      0.0524        12.3       0.182
  WS02004138           JUNCTION      0.00   380.00     0  00:00           0        5.25       0.052
  WS02004139           JUNCTION      0.32   272.06     0  01:45     0.00924        5.26       0.509
  WS02004401           JUNCTION      0.00  1209.17     0  01:43           0        6.54       0.160
  WS02004402           JUNCTION      0.00  1210.25     0  01:42           0        6.53       0.162
  WS02004403           JUNCTION      0.00  1211.25     0  01:42           0        6.52       0.157
  WS02004404           JUNCTION      0.16  1212.60     0  01:42     0.00467        6.52       0.133
  WS02004405           JUNCTION      0.04  1214.22     0  01:42      0.0011        6.51       0.194
  WS02004406           JUNCTION      0.00  1215.35     0  01:42           0         6.5       0.328
  WS02004407           JUNCTION      0.00  1215.72     0  01:42           0        6.48       0.026
  WS02004409           JUNCTION      0.00  1276.47     0  01:41           0        6.47       0.050
  WS02004410           JUNCTION      0.00  1247.39     0  01:41           0        6.47       0.078
  WS02004411           JUNCTION      0.00  1207.54     0  01:41           0        6.47       0.097
  WS02004412           JUNCTION      0.00  1180.67     0  01:45           0        6.46       0.126
  WS02004413           JUNCTION      0.00  1180.91     0  01:45           0        6.45       0.197
  WS02006109           JUNCTION      1.23  1218.27     0  01:40      0.0354        6.41       0.142
  WS02006110           JUNCTION      0.00  1217.47     0  01:40           0         6.4       0.114
  WS02006111           JUNCTION      0.00  1226.14     0  01:40           0        6.39      -0.006
  WS02006112           JUNCTION     95.66  1208.80     0  01:42       0.184        6.57       0.302
  WS02006113           JUNCTION      0.00  1216.80     0  01:40           0        6.39       0.036
  WS02006115           JUNCTION      0.00  1208.30     0  01:42           0        6.55       0.102
  WS02006116           JUNCTION      0.00  1208.54     0  01:42           0        6.54      -0.016
  WS02006228           JUNCTION      0.00  1218.41     0  01:40           0        6.37       0.057
  WS02006229           JUNCTION      0.00  1686.04     0  01:45           0        7.09       0.096
  WS02006230           JUNCTION     10.28   603.10     0  01:45       0.296        3.09       0.294
  WS02006231           JUNCTION      0.00   521.30     0  01:38           0        2.69      -0.234
  WS02006232           JUNCTION      0.00   505.23     0  01:38           0        2.67       0.250
  WS02006234           JUNCTION      0.00   505.11     0  01:38           0        2.64      -0.208
  WS02006235           JUNCTION      0.00   526.90     0  01:38           0        2.74       0.147
  WS02006238           JUNCTION      0.00   506.45     0  01:39           0        2.09      -0.166
  WS02006239           JUNCTION      0.00   517.94     0  01:39           0        2.05      -0.180
  WS02006240           JUNCTION      0.00   667.28     0  01:39           0        2.02      -0.099
  WS02006242           JUNCTION      0.00   750.84     0  01:39           0        1.99      -0.056
  WS02006243           JUNCTION      0.00   674.39     0  01:39           0         1.8      -0.112
  WS02006245           JUNCTION      0.00   458.02     0  01:40           0         1.8       0.409
  WS02006247           JUNCTION      0.00   521.09     0  01:40           0        1.79      -0.027
  WS02006248           JUNCTION      0.00   637.83     0  01:40           0        1.87      -0.025
  WS02006249           JUNCTION      0.00  1000.93     0  01:50           0        3.54       0.104
  WS02006251           JUNCTION      0.08   989.64     0  01:52     0.00222        3.52      -0.022
  WS02006252           JUNCTION      0.00   400.00     0  00:00           0        2.28      -0.023
  WS02006253           JUNCTION     13.56   777.25     0  01:45      0.0202        1.24      -0.101
  WS02006256           JUNCTION      0.00   300.00     0  00:00           0        1.52      -0.238
  WS02006280           JUNCTION      0.00  1746.97     0  01:40           0        4.72      -0.036
  WS02006284           JUNCTION      0.10  1810.22     0  01:40     0.00275        4.72       0.046
  WS02006287           JUNCTION      0.00  1855.03     0  01:40           0        4.72       0.060
  WSF200               JUNCTION      0.00  1186.56     0  01:45           0        6.43       0.012
  YS02001580           JUNCTION      0.00    65.24     0  01:44           0     0.00403      -0.532
  YS02001583           JUNCTION      0.00    96.58     0  01:44           0      0.0154      -3.140
  YS02001586           JUNCTION    201.98   223.30     0  01:45       0.629       0.641       0.155
  YS02001590           JUNCTION      0.00   223.71     0  01:45           0       0.628      -0.014
  YS02001593           JUNCTION      0.00   223.61     0  01:45           0       0.628       0.000
  YS02001596           JUNCTION      0.00   223.83     0  01:45           0       0.628      -0.014
  YS02001600           JUNCTION      0.00   224.13     0  01:45           0       0.629      -0.013
  YS02001601           JUNCTION    402.30   615.25     0  01:45       0.938        1.57       0.038
  YS02001602           JUNCTION      0.00   523.97     0  01:42           0        1.54       0.019
  YS02001605           JUNCTION      0.00   523.75     0  01:42           0        1.54       0.016
  YS02001607           JUNCTION      0.00   523.58     0  01:42           0        1.54       0.118
  YS02001610           JUNCTION      0.00   521.04     0  01:43           0        1.54       0.144
  YS02001613           JUNCTION      0.00   522.82     0  01:43           0        1.54       0.099
  YS02001616           JUNCTION      0.00   525.10     0  01:43           0        1.54       0.024
  YS02001619           JUNCTION    341.56   860.73     0  01:44       0.979        2.52      -0.004
  YS02001622           JUNCTION      0.00   861.76     0  01:44           0        2.52      -0.003
  YS02001625           JUNCTION      0.00   864.80     0  01:44           0        2.52       0.376
  YS02001629           JUNCTION      0.00   865.70     0  01:44           0        2.51       0.024
  YS02001633           JUNCTION    285.02  1150.11     0  01:44       0.665        3.17       0.107
  YS02001641           JUNCTION      0.00  1153.82     0  01:44           0        3.18       0.087
  YS02001644           JUNCTION    257.18  1404.04     0  01:44       0.571        3.74       0.089
  YS02001647           JUNCTION      0.00  1404.30     0  01:44           0        3.73       0.009
  YS02001649           JUNCTION      0.00  1621.13     0  01:45           0        4.23       0.010
  YS02001652           JUNCTION      0.00   259.53     0  01:41           0       0.498      -0.364
  YS02001655           JUNCTION      0.15   252.11     0  01:41     0.00443         0.5       0.300
  YS02001658           JUNCTION      0.00   251.75     0  01:41           0       0.495      -0.006
  YS02001661           JUNCTION      0.00   251.82     0  01:41           0       0.496       0.072
  YS02001664           JUNCTION    251.86   251.86     0  01:41       0.496       0.496      -0.007
  YS02001745           JUNCTION    177.08   177.08     0  01:40       0.319       0.319      -0.002
  YS02001748           JUNCTION      0.04   177.23     0  01:40      0.0013        0.32       0.003
  YS02001751           JUNCTION      0.01   177.22     0  01:40    0.000317        0.32       0.333
  YS02001754           JUNCTION      0.26   178.79     0  01:42     0.00749       0.327      -0.412
  YS02001757           JUNCTION      0.00  2222.55     0  01:46           0        5.69       0.067
  YS02001759           JUNCTION    240.63   498.06     0  01:41       0.434        1.13      -0.010
  YS02001762           JUNCTION      0.00   295.64     0  01:48           0       0.696       0.026
  YS02001765           JUNCTION      0.00   297.37     0  01:41           0       0.696       0.025
  YS02001767           JUNCTION      0.54   314.42     0  01:42      0.0154       0.696       0.041
  YS02001770           JUNCTION    336.04   336.04     0  01:42       0.682       0.704      -0.004
  YS02001774           JUNCTION      0.00    37.86     0  01:37           0      0.0301       4.088
  YS02001779           JUNCTION      0.01    14.62     0  01:43    0.000144     0.00683       0.141
  YS02001783           JUNCTION      0.00   865.10     0  01:47           0        2.16       0.013
  YS02001784           JUNCTION      1.06   865.28     0  01:47      0.0305        2.19       0.023
  YS02001786           JUNCTION      0.06   865.20     0  01:47     0.00162        2.19       0.028
  YS02001788           JUNCTION      0.07   865.11     0  01:48     0.00204        2.19       0.016
  YS02001790           JUNCTION      0.15   865.03     0  01:48     0.00446        2.19       0.033
  YS02001791           JUNCTION      0.00   915.50     0  01:48           0        2.19      -0.005
  YS02001793           JUNCTION      0.00   868.25     0  01:48           0        2.19       0.012
  YS02001882           JUNCTION      0.00    24.91     0  01:38           0      0.0112       6.117
  YS02001884           JUNCTION      0.00    68.61     0  01:38           0      0.0435       6.135
  YS02001887           JUNCTION    283.74   283.74     0  01:40       0.474       0.504       0.897
  YS02001890           JUNCTION      0.00   261.46     0  01:41           0       0.466       1.114
  YS02001895           JUNCTION      0.00   247.84     0  01:41           0       0.461       0.364
  YS02001898           JUNCTION      0.00   230.11     0  01:41           0       0.459       0.071
  YS02001901           JUNCTION      0.00   205.66     0  01:47           0       0.463       0.710
  YS02001904           JUNCTION      0.00   204.64     0  01:46           0       0.475       0.612
  YS02001907           JUNCTION      0.00   598.32     0  01:49           0        1.54       1.164
  YS02001910           JUNCTION      0.00   406.48     0  01:49           0        1.07       0.665
  YS02001915           JUNCTION    282.24   414.29     0  01:48       0.645        1.07       0.157
  YS02001918           JUNCTION      0.00   156.76     0  01:49           0       0.424       0.077
  YS02001920           JUNCTION      2.87   149.22     0  01:46      0.0827       0.425       0.253
  YS02001923           JUNCTION      0.04   130.77     0  01:45     0.00109       0.342       0.007
  YS02001926           JUNCTION      0.05   130.86     0  01:44      0.0015       0.341       0.080
  YS02001929           JUNCTION    130.84   130.84     0  01:44        0.34        0.34      -0.004
  YS02006553           JUNCTION      0.00   598.80     0  01:49           0        1.53       0.767
  YS02006556           JUNCTION      0.00   599.06     0  01:49           0        1.55       0.533
  YS02006558           JUNCTION    343.22   864.45     0  01:47       0.685         2.2       0.157
  YS02006561           JUNCTION      0.00   864.77     0  01:47           0        2.16      -0.001
  YS02163301           JUNCTION      0.00   868.77     0  01:44           0        2.51       0.058
  YS02163601           JUNCTION      0.11  1151.26     0  01:44     0.00317        3.17       0.152
  YS02164001           JUNCTION      0.00  1152.61     0  01:44           0        3.17       0.075
  YSB1154              JUNCTION    139.02   139.02     0  01:42       0.281       0.282       0.492
  YSB1171              JUNCTION      0.00   267.95     0  01:40           0       0.501       1.230
  YSB1174              JUNCTION    129.96   129.96     0  01:39       0.211       0.212       0.566
  YSB6556              JUNCTION      0.00   139.26     0  01:41           0       0.283       0.389
  CC-1                 OUTFALL       0.00   683.00     0  00:00           0        3.52       0.000
  CC-2                 OUTFALL       0.00   683.00     0  00:00           0       0.332       0.000
  JK-1                 OUTFALL       0.00  1000.00     0  00:00           0       0.726       0.000
  JK-2                 OUTFALL       0.00  1000.00     0  00:00           0      0.0484       0.000
  WSC                  OUTFALL       0.00  1401.31     0  01:51           0        12.2       0.000
  CC-storage           STORAGE       0.00  2168.85     0  01:46           0        7.91      -0.185
  JK-storage           STORAGE       0.00   868.64     0  01:48           0        2.34      -0.639
  XR-storage           STORAGE     200.00   200.00     0  00:00        5.76        6.36       0.001
  
  
  **********************
  Node Surcharge Summary
  **********************
  
  Surcharging occurs when water rises above the top of the highest conduit.
  ---------------------------------------------------------------------
                                               Max. Height   Min. Depth
                                   Hours       Above Crown    Below Rim
  Node                 Type      Surcharged         Meters       Meters
  ---------------------------------------------------------------------
  HS02004479           JUNCTION        0.16          0.128        0.922
  HS02004480           JUNCTION        0.21          0.175        0.925
  HS02004770           JUNCTION        0.06          0.081        0.639
  HS02004777           JUNCTION        0.07          0.074        0.706
  HS02004792           JUNCTION        0.17          0.536        0.364
  HS02004799           JUNCTION        0.28          0.391        0.669
  HS02004802           JUNCTION        0.19          0.221        0.989
  HS02004807           JUNCTION        0.17          0.291        0.929
  HS02004817           JUNCTION        0.65          0.488        1.252
  HS02004842           JUNCTION        0.08          0.109        1.411
  HS02004901           JUNCTION        0.07          0.100        0.620
  WS02004401           JUNCTION        1.17          1.660        0.000
  WS02004402           JUNCTION        1.24          1.497        0.243
  WS02004403           JUNCTION        1.25          1.202        0.828
  WS02004404           JUNCTION        1.63          1.134        1.646
  WS02004405           JUNCTION        1.57          1.004        1.796
  WS02004406           JUNCTION        1.52          1.216        1.234
  WS02004409           JUNCTION        0.43          0.254        2.106
  WS02004410           JUNCTION        0.39          0.197        2.343
  WS02004411           JUNCTION        0.34          0.192        2.338
  WS02004412           JUNCTION        0.25          0.144        2.166
  WS02004413           JUNCTION        0.78          1.286        0.914
  WS02006109           JUNCTION        1.78          1.820        0.000
  WS02006110           JUNCTION        1.68          1.850        0.000
  WS02006111           JUNCTION        0.70          1.870        0.000
  WS02006112           JUNCTION        1.73          1.680        0.000
  WS02006113           JUNCTION        0.74          1.930        0.000
  WS02006115           JUNCTION        1.08          2.045        0.205
  WS02006116           JUNCTION        1.08          1.755        0.535
  WS02006228           JUNCTION        1.78          2.200        0.000
  WS02006229           JUNCTION        0.39          1.018        0.052
  WS02006230           JUNCTION        1.63          1.570        0.000
  WS02006231           JUNCTION        1.65          1.496        0.034
  WS02006232           JUNCTION        1.73          1.480        0.000
  WS02006234           JUNCTION        1.69          1.240        0.000
  WS02006235           JUNCTION        1.71          1.290        0.000
  WS02006238           JUNCTION        1.72          1.335        0.095
  WS02006239           JUNCTION        1.67          1.290        0.000
  WS02006240           JUNCTION        1.64          1.390        0.000
  WS02006242           JUNCTION        1.65          0.820        0.000
  WS02006243           JUNCTION        1.61          0.770        0.000
  WS02006245           JUNCTION        1.60          0.850        0.000
  WS02006247           JUNCTION        1.60          0.760        0.000
  WS02006248           JUNCTION        1.59          0.380        0.000
  WS02006249           JUNCTION        1.59          0.390        0.000
  WS02006251           JUNCTION        1.56          0.847        0.333
  WS02006252           JUNCTION        1.70          1.100        0.000
  WS02006253           JUNCTION        1.56          1.066        1.414
  WS02006256           JUNCTION        4.61          2.050        0.000
  WS02006280           JUNCTION        0.28          0.634        0.146
  WS02006284           JUNCTION        0.21          0.396        0.404
  WS02006287           JUNCTION        0.09          0.044        0.846
  YS02001580           JUNCTION        0.01          0.236        0.214
  YS02001583           JUNCTION        0.01          0.212        0.288
  YS02001586           JUNCTION        0.20          0.510        0.000
  YS02001590           JUNCTION        0.29          0.720        0.030
  YS02001593           JUNCTION        0.29          0.673        0.167
  YS02001596           JUNCTION        0.40          0.926        0.144
  YS02001600           JUNCTION        0.53          1.180        0.010
  YS02001601           JUNCTION        0.85          1.440        0.000
  YS02001602           JUNCTION        0.73          1.270        0.000
  YS02001605           JUNCTION        0.69          1.149        0.031
  YS02001607           JUNCTION        0.21          0.470        0.210
  YS02001610           JUNCTION        0.24          0.491        0.189
  YS02001613           JUNCTION        0.21          0.364        0.336
  YS02001616           JUNCTION        0.15          0.235        0.375
  YS02001619           JUNCTION        0.12          0.203        0.407
  YS02001622           JUNCTION        0.11          0.178        0.442
  YS02001625           JUNCTION        0.34          0.392        0.388
  YS02001629           JUNCTION        0.01          0.014        0.456
  YS02001633           JUNCTION        0.35          0.376        0.684
  YS02001641           JUNCTION        0.25          0.158        0.942
  YS02001644           JUNCTION        0.17          0.084        0.836
  YS02001907           JUNCTION        0.33          0.245        0.705
  YS02001910           JUNCTION        0.10          0.045        1.055
  YS02006553           JUNCTION        0.34          0.247        0.943
  YS02006556           JUNCTION        0.24          0.163        1.187
  YS02006558           JUNCTION        0.23          0.137        1.263
  YS02163301           JUNCTION        0.33          0.385        0.645
  YS02163601           JUNCTION        0.38          0.331        0.749
  YS02164001           JUNCTION        0.26          0.199        0.901
  YSB1154              JUNCTION        0.38          0.391        1.009
  YSB1171              JUNCTION        0.38          0.386        0.714
  YSB1174              JUNCTION        0.31          0.333        0.917
  YSB6556              JUNCTION        0.26          0.271        0.829
  
  
  *********************
  Node Flooding Summary
  *********************
  
  Flooding refers to all water that overflows a node, whether it ponds or not.
  --------------------------------------------------------------------------
                                                             Total   Maximum
                                 Maximum   Time of Max       Flood    Ponded
                        Hours       Rate    Occurrence      Volume     Depth
  Node                 Flooded       LPS   days hr:min    10^6 ltr    Meters
  --------------------------------------------------------------------------
  WS02004401              0.01     52.20      0  01:40       0.000     0.000
  WS02006109              0.01     92.56      0  01:40       0.001     0.000
  WS02006110              0.01     42.56      0  01:40       0.000     0.000
  WS02006111              0.01    389.35      0  01:40       0.001     0.000
  WS02006112              0.01    150.39      0  01:40       0.001     0.000
  WS02006113              0.01    160.15      0  01:40       0.000     0.000
  WS02006228              0.01     28.27      0  01:40       0.000     0.000
  WS02006230              0.22    150.29      0  01:45       0.085     0.000
  WS02006232              0.03      1.66      0  01:40       0.000     0.000
  WS02006234              0.28    127.85      0  01:53       0.101     0.000
  WS02006235              0.01     36.05      0  01:39       0.000     0.000
  WS02006239              0.01     56.58      0  01:39       0.000     0.000
  WS02006240              0.01    519.52      0  01:39       0.001     0.000
  WS02006242              0.37    647.67      0  01:39       0.159     0.000
  WS02006243              0.01    590.50      0  01:39       0.003     0.000
  WS02006245              0.01    402.72      0  01:40       0.001     0.000
  WS02006247              0.01    497.94      0  01:40       0.002     0.000
  WS02006248              0.62    611.71      0  01:40       0.509     0.000
  WS02006249              1.57    979.71      0  01:50       2.123     0.000
  WS02006252              0.01    245.63      0  00:00       0.000     0.000
  WS02006256              1.40    293.19      0  00:00       0.682     0.000
  YS02001586              0.01      1.57      0  01:44       0.000     0.000
  YS02001601              0.11    123.28      0  01:45       0.023     0.000
  YS02001602              0.01      0.69      0  01:44       0.000     0.000
  
  
  **********************
  Storage Volume Summary
  **********************
  
  --------------------------------------------------------------------------------------------------
                         Average     Avg  Evap Exfil       Maximum     Max    Time of Max    Maximum
                          Volume    Pcnt  Pcnt  Pcnt        Volume    Pcnt     Occurrence    Outflow
  Storage Unit           1000 m3    Full  Loss  Loss       1000 m3    Full    days hr:min        LPS
  --------------------------------------------------------------------------------------------------
  CC-storage               2.044      32     0     0         3.583      56       0  02:10    1783.53
  JK-storage               0.118      40     0     0         0.211      72       0  01:43    2300.00
  XR-storage               0.946      66     0     0         1.111      77       0  08:00     380.00
  
  
  ***********************
  Outfall Loading Summary
  ***********************
  
  -----------------------------------------------------------
                         Flow       Avg       Max       Total
                         Freq      Flow      Flow      Volume
  Outfall Node           Pcnt       LPS       LPS    10^6 ltr
  -----------------------------------------------------------
  CC-1                  31.70    683.00    683.00       3.520
  CC-2                   1.86    683.00    683.00       0.332
  JK-1                   4.87   1000.00   1000.00       0.726
  JK-2                   0.21   1000.00   1000.00       0.048
  WSC                   99.94    565.34   1401.31      12.237
  -----------------------------------------------------------
  System                27.72   3931.34   1401.31      16.863
  
  
  ********************
  Link Flow Summary
  ********************
  
  -----------------------------------------------------------------------------
                                 Maximum  Time of Max   Maximum    Max/    Max/
                                  |Flow|   Occurrence   |Veloc|    Full    Full
  Link                 Type          LPS  days hr:min     m/sec    Flow   Depth
  -----------------------------------------------------------------------------
  1                    CONDUIT   1401.31     0  01:51      3.63    0.49    0.49
  HS02004478WS02006287 CONDUIT   1855.03     0  01:40      2.87    0.52    0.92
  HS02004479HS02004480 CONDUIT    277.51     0  01:39      0.40    0.27    1.00
  HS02004480HS02004478 CONDUIT   1594.46     0  01:41      2.38    6.72    1.00
  HS02004770HS02004777 CONDUIT    579.87     0  01:41      0.88    1.06    1.00
  HS02004777HS02004785 CONDUIT    583.08     0  01:43      1.01    0.72    0.92
  HS02004785HS02004788 CONDUIT    564.25     0  01:43      1.38    4.25    0.81
  HS02004788HS02004792 CONDUIT    707.77     0  01:48      1.47    0.47    0.89
  HS02004792HS02004799 CONDUIT   1223.14     0  01:44      1.75    0.75    1.00
  HS02004799HS02004480 CONDUIT   1338.63     0  01:44      1.91    1.69    1.00
  HS02004802HS02004478 CONDUIT    347.05     0  01:55      0.68    0.31    1.00
  HS02004807HS02004802 CONDUIT    338.81     0  01:55      0.61    0.65    1.00
  HS02004817HS02004807 CONDUIT    250.62     0  01:58      0.41    0.15    1.00
  HS02004817HS02004824 CONDUIT    249.91     0  01:58      0.51    0.11    0.93
  HS02004824HS02004830 CONDUIT    225.44     0  01:42      0.65    0.30    0.82
  HS02004830HS02004837 CONDUIT    224.76     0  01:42      0.81    0.22    0.69
  HS02004837HS02004842 CONDUIT    366.91     0  01:42      0.68    0.22    0.80
  HS02004842HS02004848 CONDUIT    344.59     0  01:43      0.67    0.20    0.77
  HS02004848HS02004852 CONDUIT    461.15     0  01:43      1.25    0.52    0.55
  HS02004852HS02004856 CONDUIT    450.94     0  01:46      1.10    0.52    0.59
  HS02004856HS02004862 CONDUIT    505.81     0  01:46      1.37    0.50    0.53
  HS02004862HS02004870 CONDUIT    579.37     0  01:44      1.63    0.63    0.51
  HS02004870HS02004876 CONDUIT    661.26     0  01:45      1.79    0.44    0.54
  HS02004876HS02004881 CONDUIT    743.40     0  01:45      2.61    7.91    0.50
  HS02004881HS02006253 CONDUIT    768.21     0  01:45      2.82    0.15    0.70
  HS02004901HS02004770 CONDUIT    114.36     0  01:40      0.17    0.43    1.00
  WS02001211WS02001212 CONDUIT    289.75     0  01:49      0.54    0.22    0.69
  WS02001212WS02001213 CONDUIT    302.12     0  01:49      1.04    0.47    0.57
  WS02001213WS02003059 CONDUIT    272.91     0  01:48      0.47    0.45    0.89
  WS02003059WS02003060 CONDUIT    327.77     0  01:43      0.66    0.21    0.79
  WS02003060WS02003069 CONDUIT   1408.09     0  01:51      2.18    0.55    0.58
  WS02003066WSF200     CONDUIT   1186.56     0  01:45      3.56    0.20    0.38
  WS02003067WS02003066 CONDUIT   1188.66     0  01:45      1.92    0.38    0.56
  WS02003069WS02003072 CONDUIT   1401.38     0  01:52      1.85    0.67    0.64
  WS02003072WS02003073 CONDUIT   1401.51     0  01:50      2.00    3.03    0.60
  WS02004138WS02004139 CONDUIT    190.63     0  00:29      2.18    0.04    0.42
  WS02004139WS02001211 CONDUIT    340.91     0  01:46      0.54    0.43    0.60
  WS02004401WS02004402 CONDUIT   1210.25     0  01:42      1.54    1.45    1.00
  WS02004402WS02004403 CONDUIT   1211.25     0  01:42      1.54    1.74    1.00
  WS02004403WS02004404 CONDUIT   1212.44     0  01:42      1.54    0.88    1.00
  WS02004404WS02004405 CONDUIT   1214.18     0  01:42      1.55   11.90    1.00
  WS02004405WS02004406 CONDUIT   1215.35     0  01:42      1.55    2.40    1.00
  WS02004406WS02004407 CONDUIT   1215.72     0  01:42      1.97    0.54    0.87
  WS02004407WS02004409 CONDUIT   1276.47     0  01:41      2.23    0.45    0.87
  WS02004409WS02004410 CONDUIT   1247.39     0  01:41      1.73    1.61    1.00
  WS02004410WS02004411 CONDUIT   1207.54     0  01:41      1.69    1.65    1.00
  WS02004411WS02004412 CONDUIT   1180.67     0  01:45      1.67    1.68    1.00
  WS02004412WS02004413 CONDUIT   1180.91     0  01:45      1.50    0.79    1.00
  WS02004413WS02003067 CONDUIT   1181.30     0  01:45      1.87    0.51    0.75
  WS02006109WS02006110 CONDUIT   1217.47     0  01:40      2.42    2.34    1.00
  WS02006110WS02006113 CONDUIT   1216.80     0  01:40      2.42    1.11    1.00
  WS02006111WS02006112 CONDUIT   1118.00     0  01:42      2.22    0.53    1.00
  WS02006112WS02006115 CONDUIT   1208.30     0  01:42      1.54    0.71    1.00
  WS02006113WS02006111 CONDUIT   1226.14     0  01:40      2.72    1.47    1.00
  WS02006115WS02006116 CONDUIT   1208.54     0  01:42      1.54    1.55    1.00
  WS02006116WS02004401 CONDUIT   1209.17     0  01:43      1.54    1.67    1.00
  WS02006228WS02006109 CONDUIT   1217.04     0  01:40      2.42    5.32    1.00
  WS02006229WS02006228 CONDUIT   1218.41     0  01:40      2.42    4.04    1.00
  WS02006230WS02006229 CONDUIT    592.82     0  01:45      1.54   13.19    1.00
  WS02006231WS02006230 CONDUIT    521.30     0  01:38      1.36    7.91    1.00
  WS02006232WS02006231 CONDUIT    505.23     0  01:38      1.31    1.06    1.00
  WS02006234WS02006232 CONDUIT    505.11     0  01:38      1.41    1.02    1.00
  WS02006235WS02006234 CONDUIT    526.87     0  01:38      1.38    5.56    1.00
  WS02006238WS02006235 CONDUIT    506.45     0  01:39      1.45    1.13    1.00
  WS02006239WS02006238 CONDUIT    517.94     0  01:39      1.35    1.66    1.00
  WS02006240WS02006239 CONDUIT    530.95     0  01:39      1.42    1.67    1.00
  WS02006242WS02006240 CONDUIT    503.07     0  01:39      1.32    2.00    1.00
  WS02006243WS02006242 CONDUIT    423.06     0  01:39      1.34    0.90    1.00
  WS02006245WS02006243 CONDUIT    401.30     0  03:09      1.39    1.19    1.00
  WS02006247WS02006245 CONDUIT    401.30     0  03:09      1.37    3.18    1.00
  WS02006248WS02006247 CONDUIT    401.29     0  03:09      1.38    0.87    1.00
  WS02006249WS02006248 CONDUIT    405.89     0  01:40      1.38    2.22    1.00
  WS02006251WS02006249 CONDUIT   1000.93     0  01:50      2.60    2.89    1.00
  WS02006252WS02006251 CONDUIT    408.14     0  01:50     24.89    1.50    1.00
  WS02006253WS02006251 CONDUIT    776.90     0  01:45      2.02    2.33    1.00
  WS02006256WS02006235 CONDUIT    288.93     0  00:00      4.23    3.06    1.00
  WS02006280WS02006229 CONDUIT   1686.04     0  01:45      5.12    0.36    1.00
  WS02006284WS02006280 CONDUIT   1746.97     0  01:40      3.23    0.73    1.00
  WS02006287WS02006284 CONDUIT   1810.13     0  01:40      3.03    0.84    1.00
  WSF200WS02003060     CONDUIT   1323.40     0  01:43      3.03    0.29    0.48
  YS02001580YS02001583 CONDUIT     65.24     0  01:44      0.51    0.25    1.00
  YS02001583YS02001586 CONDUIT     89.40     0  01:43      0.40    0.14    1.00
  YS02001586YS02001590 CONDUIT    223.71     0  01:45      1.28    0.39    1.00
  YS02001590YS02001593 CONDUIT    223.61     0  01:45      1.01    1.40    1.00
  YS02001593YS02001596 CONDUIT    223.83     0  01:45      1.67    0.35    1.00
  YS02001596YS02001600 CONDUIT    224.13     0  01:45      1.16    0.44    1.00
  YS02001600YS02001601 CONDUIT    224.23     0  01:45      0.79    0.39    1.00
  YS02001601YS02001602 CONDUIT    523.97     0  01:42      1.85    1.89    1.00
  YS02001602YS02001605 CONDUIT    523.75     0  01:42      1.85   11.08    1.00
  YS02001605YS02001607 CONDUIT    523.58     0  01:42      1.85    2.87    1.00
  YS02001607YS02001610 CONDUIT    521.04     0  01:43      0.72    0.50    1.00
  YS02001610YS02001613 CONDUIT    522.82     0  01:43      0.69    0.60    1.00
  YS02001613YS02001616 CONDUIT    525.10     0  01:43      0.73    0.45    1.00
  YS02001616YS02001619 CONDUIT    520.63     0  01:44      0.76    0.90    1.00
  YS02001619YS02001622 CONDUIT    861.76     0  01:44      1.43    1.27    1.00
  YS02001622YS02001625 CONDUIT    864.80     0  01:44      1.10    0.46    1.00
  YS02001625YS02001629 CONDUIT    865.70     0  01:44      1.11    0.41    1.00
  YS02001629YS02163301 CONDUIT    868.77     0  01:44      1.11    1.07    1.00
  YS02001633YS02163601 CONDUIT   1151.15     0  01:44      1.47    1.21    1.00
  YS02001641YS02001644 CONDUIT   1153.62     0  01:44      1.47    3.73    1.00
  YS02001644YS02001647 CONDUIT   1404.30     0  01:44      1.97    0.82    0.85
  YS02001647YS02001649 CONDUIT   1418.42     0  01:45      2.29    0.75    0.74
  YS02001649YS02001757 CONDUIT   1624.48     0  01:46      2.45    0.99    0.79
  YS02001652YS02001649 CONDUIT    272.51     0  01:46      1.03    0.14    0.69
  YS02001655YS02001652 CONDUIT    259.53     0  01:41      1.75    0.13    0.45
  YS02001658YS02001655 CONDUIT    251.96     0  01:41      1.86    0.11    0.27
  YS02001661YS02001658 CONDUIT    251.75     0  01:41      2.01    0.10    0.22
  YS02001664YS02001661 CONDUIT    251.82     0  01:41      1.78    0.08    0.24
  YS02001745YS02001748 CONDUIT    177.19     0  01:40      1.89    0.07    0.18
  YS02001748YS02001751 CONDUIT    177.21     0  01:40      1.59    0.09    0.20
  YS02001751YS02001754 CONDUIT    178.53     0  01:42      1.61    0.09    0.29
  YS02001754YS02001757 CONDUIT    182.70     0  01:42      0.79    0.07    0.62
  YS02001757CaochengTiaoxuchi CONDUIT   2168.85     0  01:46      3.29    0.94    0.88
  YS02001759YS02001757 CONDUIT    478.04     0  01:41      1.23    0.34    0.74
  YS02001762YS02001759 CONDUIT    305.38     0  01:48      0.64    0.35    0.68
  YS02001765YS02001762 CONDUIT    295.64     0  01:48      0.78    0.28    0.64
  YS02001767YS02001765 CONDUIT    297.37     0  01:41      0.92    0.37    0.61
  YS02001770YS02001767 CONDUIT    313.89     0  01:42      0.90    1.24    0.59
  YS02001774YS02001770 CONDUIT     37.86     0  01:37      0.20    0.02    0.62
  YS02001779YS02001774 CONDUIT     14.62     0  01:43      0.08    0.01    0.54
  YS02001783YS02001784 CONDUIT    864.22     0  01:47      1.73    1.19    0.97
  YS02001784YS02001785 CONDUIT    865.15     0  01:47      1.86    2.01    0.87
  YS02001786YS02001788 CONDUIT    865.04     0  01:48      2.30    1.67    0.70
  YS02001788YS02001790 CONDUIT    864.87     0  01:48      2.39    0.64    0.68
  YS02001790YS02001791 CONDUIT    915.50     0  01:48      2.99    1.00    0.59
  YS02001791YS02001793 CONDUIT    868.25     0  01:48      6.00    0.37    0.33
  YS02001793JiankangQianchi CONDUIT    868.64     0  01:48      1.81    0.07    0.59
  YS02001882YS02001884 CONDUIT     24.91     0  01:38      0.13    0.03    0.86
  YS02001884YS02001887 CONDUIT     68.61     0  01:38      0.15    0.09    0.95
  YS02001887YS02001890 CONDUIT    261.46     0  01:41      0.37    0.45    1.00
  YS02001890YS02001895 CONDUIT    247.84     0  01:41      0.38    0.12    0.90
  YS02001895YS02001898 CONDUIT    230.11     0  01:41      0.51    0.40    0.79
  YS02001898YS02001901 CONDUIT    205.66     0  01:47      0.33    0.13    0.88
  YS02001901YS02001904 CONDUIT    204.64     0  01:46      0.39    0.32    0.93
  YS02001904YS02001907 CONDUIT    210.79     0  01:56      0.29    0.07    0.96
  YS02001907YS02006553 CONDUIT    598.80     0  01:49      0.67    0.70    1.00
  YS02001910YS02001907 CONDUIT    407.05     0  01:48      0.52    0.23    1.00
  YS02001915YS02001910 CONDUIT    406.48     0  01:49      0.55    0.20    0.92
  YS02001918YS02001915 CONDUIT    166.57     0  01:48      0.44    0.09    0.66
  YS02001920YS02001918 CONDUIT    156.76     0  01:49      0.70    0.15    0.52
  YS02001923YS02001920 CONDUIT    146.35     0  01:46      0.79    0.07    0.43
  YS02001926YS02001923 CONDUIT    130.74     0  01:45      0.85    0.19    0.25
  YS02001929YS02001926 CONDUIT    130.81     0  01:44      0.93    0.06    0.23
  YS02006553YS02006556 CONDUIT    599.06     0  01:49      0.76    0.51    1.00
  YS02006556YS02006558 CONDUIT    599.73     0  01:49      0.76    0.47    1.00
  YS02006558YS02006561 CONDUIT    864.77     0  01:47      3.42    1.91    0.84
  YS02006561YS02001783 CONDUIT    865.10     0  01:47      2.15    0.45    0.75
  YS02163301YS02001633 CONDUIT    869.49     0  01:44      1.11    0.82    1.00
  YS02163601YS02164001 CONDUIT   1152.61     0  01:44      1.47    1.02    1.00
  YS02164001YS02001641 CONDUIT   1153.82     0  01:44      1.47    1.58    1.00
  YSB1154YSB6556       CONDUIT    139.26     0  01:41      0.36    0.25    1.00
  YSB1171HS02004479    CONDUIT    269.22     0  01:40      0.54    0.18    1.00
  YSB1174YSB1171       CONDUIT    130.33     0  01:39      0.34    0.20    1.00
  YSB6556YSB1171       CONDUIT    140.54     0  01:41      0.37    0.14    1.00
  CC-R1                PUMP       683.00     0  00:00              1.00
  CC-R2                PUMP       683.00     0  00:00              1.00
  CC-S1                PUMP       200.00     0  00:00              1.00
  CC-S2                PUMP       200.00     0  00:00              1.00
  JK-R1                PUMP      1000.00     0  00:00              1.00
  JK-R2                PUMP      1000.00     0  00:00              1.00
  JK-S                 PUMP       300.00     0  00:00              1.00
  XR-1                 PUMP        95.00     0  00:00              1.00
  XR-2                 PUMP        95.00     0  00:00              1.00
  XR-3                 PUMP        95.00     0  00:00              1.00
  XR-4                 PUMP        95.00     0  00:00              1.00
  
  
  ***************************
  Flow Classification Summary
  ***************************
  
  -------------------------------------------------------------------------------------
                      Adjusted    ---------- Fraction of Time in Flow Class ---------- 
                       /Actual         Up    Down  Sub   Sup   Up    Down  Norm  Inlet 
  Conduit               Length    Dry  Dry   Dry   Crit  Crit  Crit  Crit  Ltd   Ctrl  
  -------------------------------------------------------------------------------------
  1                       1.00   0.00  0.00  0.00  0.00  1.00  0.00  0.00  0.40  0.00
  HS02004478WS02006287    1.00   0.12  0.00  0.00  0.55  0.34  0.00  0.00  0.63  0.00
  HS02004479HS02004480    1.00   0.04  0.00  0.00  0.96  0.00  0.00  0.00  0.12  0.00
  HS02004480HS02004478    1.00   0.10  0.00  0.00  0.48  0.00  0.00  0.42  0.00  0.00
  HS02004770HS02004777    1.00   0.00  0.09  0.00  0.90  0.00  0.00  0.00  0.04  0.00
  HS02004777HS02004785    1.00   0.00  0.00  0.00  1.00  0.00  0.00  0.00  0.13  0.00
  HS02004785HS02004788    1.00   0.00  0.00  0.00  1.00  0.00  0.00  0.00  0.00  0.00
  HS02004788HS02004792    1.00   0.00  0.00  0.00  0.99  0.01  0.00  0.00  0.96  0.00
  HS02004792HS02004799    1.00   0.00  0.00  0.00  0.99  0.01  0.00  0.00  0.93  0.00
  HS02004799HS02004480    1.00   0.00  0.04  0.00  0.88  0.00  0.07  0.00  0.00  0.00
  HS02004802HS02004478    1.00   0.10  0.00  0.00  0.90  0.00  0.00  0.00  0.03  0.00
  HS02004807HS02004802    1.00   0.10  0.00  0.00  0.89  0.00  0.00  0.01  0.00  0.00
  HS02004817HS02004807    1.00   0.00  0.10  0.00  0.90  0.00  0.00  0.00  0.01  0.00
  HS02004817HS02004824    1.00   0.00  0.00  0.00  1.00  0.00  0.00  0.00  0.89  0.00
  HS02004824HS02004830    1.00   0.00  0.00  0.00  1.00  0.00  0.00  0.00  0.01  0.00
  HS02004830HS02004837    1.00   0.00  0.00  0.00  1.00  0.00  0.00  0.00  0.94  0.00
  HS02004837HS02004842    1.00   0.00  0.00  0.00  0.99  0.01  0.00  0.00  0.11  0.00
  HS02004842HS02004848    1.00   0.00  0.10  0.00  0.90  0.00  0.00  0.00  0.61  0.00
  HS02004848HS02004852    1.00   0.10  0.00  0.00  0.90  0.00  0.00  0.00  0.76  0.00
  HS02004852HS02004856    1.00   0.09  0.01  0.00  0.90  0.00  0.00  0.00  0.74  0.00
  HS02004856HS02004862    1.00   0.00  0.12  0.00  0.88  0.00  0.00  0.00  0.78  0.00
  HS02004862HS02004870    1.00   0.00  0.00  0.00  1.00  0.00  0.00  0.00  0.04  0.00
  HS02004870HS02004876    1.00   0.01  0.00  0.00  0.98  0.01  0.00  0.00  0.91  0.00
  HS02004876HS02004881    1.00   0.02  0.00  0.00  0.71  0.26  0.00  0.00  0.00  0.00
  HS02004881HS02006253    1.00   0.04  0.02  0.00  0.37  0.03  0.00  0.54  0.19  0.00
  HS02004901HS02004770    1.00   0.09  0.00  0.00  0.90  0.00  0.00  0.00  0.01  0.00
  WS02001211WS02001212    1.00   0.00  0.03  0.00  0.97  0.00  0.00  0.00  0.00  0.00
  WS02001212WS02001213    1.00   0.03  0.00  0.00  0.42  0.00  0.55  0.00  0.00  0.00
  WS02001213WS02003059    1.00   0.00  0.00  0.00  0.99  0.00  0.00  0.00  0.00  0.00
  WS02003059WS02003060    1.00   0.00  0.00  0.00  1.00  0.00  0.00  0.00  0.03  0.00
  WS02003060WS02003069    1.00   0.00  0.00  0.00  0.98  0.02  0.00  0.00  0.61  0.00
  WS02003066WSF200        1.00   0.06  0.00  0.00  0.00  0.94  0.00  0.00  0.71  0.00
  WS02003067WS02003066    1.00   0.06  0.00  0.00  0.94  0.00  0.00  0.00  0.00  0.00
  WS02003069WS02003072    1.00   0.00  0.00  0.00  1.00  0.00  0.00  0.00  0.73  0.00
  WS02003072WS02003073    1.00   0.00  0.00  0.00  0.00  0.00  0.00  1.00  0.00  0.00
  WS02004138WS02004139    1.00   0.00  0.01  0.00  0.97  0.01  0.00  0.02  0.98  0.00
  WS02004139WS02001211    1.00   0.00  0.00  0.00  0.99  0.00  0.00  0.00  0.00  0.00
  WS02004401WS02004402    1.00   0.03  0.00  0.00  0.97  0.00  0.00  0.00  0.00  0.00
  WS02004402WS02004403    1.00   0.03  0.00  0.00  0.97  0.00  0.00  0.00  0.00  0.00
  WS02004403WS02004404    1.00   0.00  0.03  0.00  0.97  0.00  0.00  0.00  0.00  0.00
  WS02004404WS02004405    1.00   0.00  0.00  0.00  1.00  0.00  0.00  0.00  0.01  0.00
  WS02004405WS02004406    1.00   0.00  0.00  0.00  1.00  0.00  0.00  0.00  0.00  0.00
  WS02004406WS02004407    1.00   0.00  0.04  0.00  0.96  0.00  0.00  0.00  0.00  0.00
  WS02004407WS02004409    1.00   0.04  0.00  0.00  0.94  0.02  0.00  0.00  0.90  0.00
  WS02004409WS02004410    1.00   0.04  0.00  0.00  0.96  0.00  0.00  0.00  0.00  0.00
  WS02004410WS02004411    1.00   0.05  0.00  0.00  0.95  0.00  0.00  0.00  0.00  0.00
  WS02004411WS02004412    1.00   0.05  0.00  0.00  0.95  0.00  0.00  0.00  0.00  0.00
  WS02004412WS02004413    1.00   0.05  0.00  0.00  0.95  0.00  0.00  0.00  0.00  0.00
  WS02004413WS02003067    1.00   0.05  0.01  0.00  0.00  0.00  0.94  0.00  0.00  0.00
  WS02006109WS02006110    1.00   0.00  0.01  0.00  0.98  0.00  0.01  0.00  0.00  0.00
  WS02006110WS02006113    1.00   0.01  0.01  0.00  0.98  0.00  0.00  0.00  0.00  0.00
  WS02006111WS02006112    1.00   0.02  0.00  0.00  0.97  0.00  0.00  0.00  0.78  0.00
  WS02006112WS02006115    1.00   0.02  0.01  0.00  0.97  0.00  0.00  0.00  0.00  0.00
  WS02006113WS02006111    1.00   0.02  0.00  0.00  0.24  0.74  0.00  0.00  0.08  0.00
  WS02006115WS02006116    1.00   0.03  0.00  0.00  0.96  0.00  0.00  0.01  0.00  0.00
  WS02006116WS02004401    1.00   0.03  0.00  0.00  0.97  0.00  0.00  0.00  0.00  0.00
  WS02006228WS02006109    1.00   0.00  0.00  0.00  1.00  0.00  0.00  0.00  0.00  0.00
  WS02006229WS02006228    1.00   0.00  0.00  0.00  0.99  0.00  0.00  0.01  0.00  0.00
  WS02006230WS02006229    1.00   0.00  0.00  0.00  0.98  0.00  0.00  0.02  0.01  0.00
  WS02006231WS02006230    1.00   0.00  0.00  0.00  0.44  0.00  0.56  0.00  0.00  0.00
  WS02006232WS02006231    1.00   0.00  0.00  0.00  0.99  0.00  0.01  0.00  0.00  0.00
  WS02006234WS02006232    1.00   0.00  0.00  0.00  1.00  0.00  0.00  0.00  0.30  0.00
  WS02006235WS02006234    1.00   0.00  0.00  0.00  0.70  0.00  0.30  0.00  0.00  0.00
  WS02006238WS02006235    1.00   0.00  0.00  0.00  1.00  0.00  0.00  0.00  0.00  0.00
  WS02006239WS02006238    1.00   0.00  0.00  0.00  1.00  0.00  0.00  0.00  0.48  0.00
  WS02006240WS02006239    1.00   0.00  0.00  0.00  0.56  0.00  0.00  0.44  0.01  0.00
  WS02006242WS02006240    1.00   0.00  0.00  0.00  0.98  0.00  0.01  0.00  0.00  0.00
  WS02006243WS02006242    1.00   0.00  0.00  0.00  0.99  0.00  0.00  0.00  0.69  0.00
  WS02006245WS02006243    1.00   0.00  0.00  0.00  0.85  0.00  0.00  0.15  0.00  0.00
  WS02006247WS02006245    1.00   0.00  0.00  0.00  0.99  0.00  0.00  0.00  0.00  0.00
  WS02006248WS02006247    1.00   0.00  0.00  0.00  1.00  0.00  0.00  0.00  0.65  0.00
  WS02006249WS02006248    1.00   0.00  0.00  0.00  0.48  0.00  0.52  0.00  0.00  0.00
  WS02006251WS02006249    1.00   0.00  0.00  0.00  1.00  0.00  0.00  0.00  0.73  0.00
  WS02006252WS02006251    1.00   0.00  0.52  0.00  0.36  0.00  0.11  0.00  0.00  0.00
  WS02006253WS02006251    1.00   0.00  0.00  0.00  0.98  0.00  0.02  0.00  0.00  0.00
  WS02006256WS02006235    1.00   0.00  0.00  0.00  1.00  0.00  0.00  0.00  0.00  0.00
  WS02006280WS02006229    1.00   0.10  0.00  0.00  0.16  0.08  0.00  0.66  0.02  0.00
  WS02006284WS02006280    1.00   0.10  0.00  0.00  0.08  0.02  0.00  0.80  0.00  0.00
  WS02006287WS02006284    1.00   0.08  0.03  0.00  0.44  0.44  0.00  0.01  0.68  0.00
  WSF200WS02003060        1.00   0.00  0.06  0.00  0.54  0.40  0.00  0.00  0.70  0.00
  YS02001580YS02001583    1.00   0.17  0.61  0.00  0.22  0.00  0.00  0.00  0.75  0.00
  YS02001583YS02001586    1.00   0.33  0.33  0.00  0.34  0.00  0.00  0.00  0.76  0.00
  YS02001586YS02001590    1.00   0.09  0.00  0.00  0.53  0.03  0.00  0.34  0.34  0.00
  YS02001590YS02001593    1.00   0.10  0.01  0.00  0.11  0.00  0.79  0.00  0.00  0.00
  YS02001593YS02001596    1.00   0.10  0.00  0.00  0.13  0.01  0.00  0.75  0.02  0.00
  YS02001596YS02001600    1.00   0.10  0.00  0.00  0.23  0.03  0.00  0.64  0.06  0.00
  YS02001600YS02001601    1.00   0.10  0.01  0.00  0.90  0.00  0.00  0.00  0.65  0.00
  YS02001601YS02001602    1.00   0.09  0.01  0.00  0.90  0.00  0.00  0.00  0.00  0.00
  YS02001602YS02001605    1.00   0.10  0.00  0.00  0.90  0.00  0.00  0.00  0.00  0.00
  YS02001605YS02001607    1.00   0.10  0.00  0.00  0.90  0.00  0.00  0.00  0.00  0.00
  YS02001607YS02001610    1.00   0.10  0.01  0.00  0.90  0.00  0.00  0.00  0.02  0.00
  YS02001610YS02001613    1.00   0.10  0.00  0.00  0.90  0.00  0.00  0.00  0.01  0.00
  YS02001613YS02001616    1.00   0.10  0.00  0.00  0.90  0.00  0.00  0.00  0.01  0.00
  YS02001616YS02001619    1.00   0.09  0.00  0.00  0.91  0.00  0.00  0.00  0.00  0.00
  YS02001619YS02001622    1.00   0.09  0.00  0.00  0.91  0.00  0.00  0.00  0.32  0.00
  YS02001622YS02001625    1.00   0.10  0.00  0.00  0.90  0.00  0.00  0.00  0.06  0.00
  YS02001625YS02001629    1.00   0.10  0.04  0.00  0.16  0.00  0.71  0.00  0.00  0.00
  YS02001629YS02163301    1.00   0.12  0.00  0.00  0.88  0.00  0.00  0.00  0.00  0.00
  YS02001633YS02163601    1.00   0.00  0.01  0.00  0.99  0.00  0.00  0.00  0.16  0.00
  YS02001641YS02001644    1.00   0.00  0.01  0.00  0.99  0.00  0.00  0.00  0.00  0.00
  YS02001644YS02001647    1.00   0.00  0.13  0.00  0.87  0.00  0.00  0.00  0.00  0.00
  YS02001647YS02001649    1.00   0.00  0.12  0.00  0.47  0.41  0.00  0.00  0.60  0.00
  YS02001649YS02001757    1.00   0.00  0.00  0.00  0.61  0.39  0.00  0.00  0.55  0.00
  YS02001652YS02001649    1.00   0.00  0.00  0.00  0.97  0.03  0.00  0.00  0.80  0.00
  YS02001655YS02001652    1.00   0.00  0.00  0.00  0.19  0.02  0.00  0.79  0.08  0.00
  YS02001658YS02001655    1.00   0.00  0.11  0.00  0.42  0.47  0.00  0.00  0.79  0.00
  YS02001661YS02001658    1.00   0.11  0.00  0.00  0.30  0.60  0.00  0.00  0.79  0.00
  YS02001664YS02001661    1.00   0.09  0.00  0.00  0.74  0.17  0.00  0.00  0.87  0.00
  YS02001745YS02001748    1.00   0.00  0.00  0.00  0.00  0.00  0.00  1.00  0.00  0.00
  YS02001748YS02001751    1.00   0.00  0.00  0.00  0.55  0.45  0.00  0.00  0.86  0.00
  YS02001751YS02001754    1.00   0.00  0.00  0.00  0.14  0.01  0.00  0.85  0.08  0.00
  YS02001754YS02001757    1.00   0.00  0.00  0.00  1.00  0.00  0.00  0.00  0.90  0.00
  YS02001757CaochengTiaoxuchi    1.00   0.00  0.00  0.00  0.96  0.04  0.00  0.00  0.88  0.00
  YS02001759YS02001757    1.00   0.00  0.00  0.00  1.00  0.00  0.00  0.00  0.66  0.00
  YS02001762YS02001759    1.00   0.00  0.00  0.00  1.00  0.00  0.00  0.00  0.05  0.00
  YS02001765YS02001762    1.00   0.00  0.00  0.00  1.00  0.00  0.00  0.00  0.79  0.00
  YS02001767YS02001765    1.00   0.00  0.00  0.00  1.00  0.00  0.00  0.00  0.00  0.00
  YS02001770YS02001767    1.00   0.00  0.00  0.00  1.00  0.00  0.00  0.00  0.00  0.00
  YS02001774YS02001770    1.00   0.00  0.10  0.00  0.76  0.00  0.14  0.00  0.04  0.00
  YS02001779YS02001774    1.00   0.00  0.00  0.00  1.00  0.00  0.00  0.00  0.86  0.00
  YS02001783YS02001784    1.00   0.00  0.13  0.00  0.87  0.00  0.00  0.00  0.58  0.00
  YS02001784YS02001785    1.00   0.00  0.00  0.00  1.00  0.00  0.00  0.00  0.18  0.00
  YS02001786YS02001788    1.00   0.00  0.00  0.00  0.57  0.43  0.00  0.00  0.00  0.00
  YS02001788YS02001790    1.00   0.00  0.00  0.00  0.14  0.86  0.00  0.00  0.89  0.00
  YS02001790YS02001791    1.00   0.00  0.00  0.00  0.01  0.99  0.00  0.00  0.18  0.00
  YS02001791YS02001793    1.00   0.00  0.00  0.00  0.00  1.00  0.00  0.00  0.00  0.00
  YS02001793JiankangQianchi    1.00   0.00  0.00  0.00  1.00  0.00  0.00  0.00  1.00  0.00
  YS02001882YS02001884    1.00   0.11  0.01  0.00  0.88  0.00  0.00  0.00  0.00  0.00
  YS02001884YS02001887    1.00   0.06  0.03  0.00  0.91  0.00  0.00  0.00  0.00  0.00
  YS02001887YS02001890    1.00   0.00  0.00  0.00  0.96  0.00  0.04  0.00  0.00  0.00
  YS02001890YS02001895    1.00   0.00  0.12  0.00  0.88  0.00  0.00  0.00  0.00  0.00
  YS02001895YS02001898    1.00   0.12  0.00  0.00  0.86  0.00  0.01  0.00  0.00  0.00
  YS02001898YS02001901    1.00   0.12  0.00  0.00  0.88  0.00  0.00  0.00  0.01  0.00
  YS02001901YS02001904    1.00   0.12  0.00  0.00  0.88  0.00  0.00  0.00  0.00  0.00
  YS02001904YS02001907    1.00   0.00  0.12  0.00  0.88  0.00  0.00  0.00  0.00  0.00
  YS02001907YS02006553    1.00   0.00  0.03  0.00  0.97  0.00  0.00  0.00  0.00  0.00
  YS02001910YS02001907    1.00   0.00  0.00  0.00  0.96  0.00  0.00  0.03  0.12  0.00
  YS02001915YS02001910    1.00   0.00  0.00  0.00  0.97  0.03  0.00  0.00  0.17  0.00
  YS02001918YS02001915    1.00   0.00  0.01  0.00  0.97  0.03  0.00  0.00  0.80  0.00
  YS02001920YS02001918    1.00   0.00  0.01  0.00  0.99  0.00  0.00  0.00  0.00  0.00
  YS02001923YS02001920    1.00   0.00  0.00  0.00  1.00  0.00  0.00  0.00  0.98  0.00
  YS02001926YS02001923    1.00   0.00  0.07  0.00  0.00  0.00  0.93  0.00  0.00  0.00
  YS02001929YS02001926    1.00   0.00  0.09  0.00  0.91  0.00  0.00  0.00  0.87  0.00
  YS02006553YS02006556    1.00   0.01  0.00  0.00  0.99  0.00  0.00  0.00  0.03  0.00
  YS02006556YS02006558    1.00   0.00  0.00  0.00  1.00  0.00  0.00  0.00  0.00  0.00
  YS02006558YS02006561    1.00   0.13  0.00  0.00  0.00  0.87  0.00  0.00  0.21  0.00
  YS02006561YS02001783    1.00   0.13  0.00  0.00  0.07  0.80  0.00  0.00  0.73  0.00
  YS02163301YS02001633    1.00   0.00  0.12  0.00  0.88  0.00  0.00  0.00  0.00  0.00
  YS02163601YS02164001    1.00   0.00  0.07  0.00  0.93  0.00  0.00  0.00  0.00  0.00
  YS02164001YS02001641    1.00   0.01  0.07  0.00  0.93  0.00  0.00  0.00  0.06  0.00
  YSB1154YSB6556          1.00   0.09  0.00  0.00  0.91  0.00  0.00  0.00  0.02  0.00
  YSB1171HS02004479       1.00   0.05  0.00  0.00  0.94  0.00  0.00  0.01  0.11  0.00
  YSB1174YSB1171          1.00   0.05  0.02  0.00  0.92  0.00  0.00  0.00  0.00  0.00
  YSB6556YSB1171          1.00   0.05  0.05  0.00  0.91  0.00  0.00  0.00  0.00  0.00
  
  
  *************************
  Conduit Surcharge Summary
  *************************
  
  ----------------------------------------------------------------------------
                                                           Hours        Hours 
                         --------- Hours Full --------   Above Full   Capacity
  Conduit                Both Ends  Upstream  Dnstream   Normal Flow   Limited
  ----------------------------------------------------------------------------
  HS02004478WS02006287        0.01      0.01      0.18      0.01         0.01
  HS02004479HS02004480        0.21      0.21      0.23      0.01         0.01
  HS02004480HS02004478        0.11      0.21      0.11      1.16         0.11
  HS02004770HS02004777        0.06      0.06      0.07      0.06         0.01
  HS02004777HS02004785        0.01      0.01      0.07      0.01         0.01
  HS02004785HS02004788        0.01      0.01      0.01      0.81         0.01
  HS02004788HS02004792        0.01      0.01      0.17      0.01         0.01
  HS02004792HS02004799        0.17      0.17      0.28      0.01         0.01
  HS02004799HS02004480        0.21      0.21      0.28      0.35         0.01
  HS02004802HS02004478        0.13      0.13      0.20      0.01         0.01
  HS02004807HS02004802        0.17      0.17      0.19      0.01         0.01
  HS02004817HS02004807        0.17      0.17      0.65      0.01         0.01
  HS02004817HS02004824        0.01      0.01      0.65      0.01         0.01
  HS02004837HS02004842        0.01      0.01      0.08      0.01         0.01
  HS02004842HS02004848        0.01      0.01      0.08      0.01         0.01
  HS02004876HS02004881        0.01      0.01      0.01      0.84         0.01
  HS02004881HS02006253        0.01      0.01      1.56      0.01         0.01
  HS02004901HS02004770        0.06      0.06      0.07      0.01         0.01
  WS02003072WS02003073        0.01      0.01      0.01      1.95         0.01
  WS02004401WS02004402        1.17      1.17      1.24      0.93         0.91
  WS02004402WS02004403        1.24      1.24      1.25      1.15         1.13
  WS02004403WS02004404        1.25      1.25      1.63      0.01         0.01
  WS02004404WS02004405        1.57      1.63      1.57      2.46         1.57
  WS02004405WS02004406        1.52      1.57      1.52      1.71         1.52
  WS02004406WS02004407        0.01      0.01      1.52      0.01         0.01
  WS02004407WS02004409        0.01      0.01      0.43      0.01         0.01
  WS02004409WS02004410        0.39      0.43      0.39      1.08         0.38
  WS02004410WS02004411        0.34      0.39      0.34      1.10         0.33
  WS02004411WS02004412        0.25      0.34      0.25      1.14         0.25
  WS02004412WS02004413        0.25      0.25      0.78      0.01         0.01
  WS02004413WS02003067        0.01      0.01      0.78      0.01         0.01
  WS02006109WS02006110        1.67      1.67      1.79      1.68         0.01
  WS02006110WS02006113        0.74      0.74      1.79      0.06         0.01
  WS02006111WS02006112        0.70      0.70      1.88      0.01         0.01
  WS02006112WS02006115        1.08      1.08      1.73      0.01         0.01
  WS02006113WS02006111        0.71      0.74      0.71      0.89         0.71
  WS02006115WS02006116        1.08      1.08      1.08      1.09         1.07
  WS02006116WS02004401        1.15      1.15      1.17      1.12         1.09
  WS02006228WS02006109        1.78      1.79      1.78      2.01         1.78
  WS02006229WS02006228        1.78      1.78      1.78      1.88         1.78
  WS02006230WS02006229        1.81      1.82      1.81      2.65         1.35
  WS02006231WS02006230        1.63      1.63      1.65      2.37         0.41
  WS02006232WS02006231        1.65      1.65      1.73      0.10         0.04
  WS02006234WS02006232        1.70      1.70      1.73      0.01         0.01
  WS02006235WS02006234        1.68      1.69      1.71      2.13         0.38
  WS02006238WS02006235        1.71      1.71      1.72      0.01         0.09
  WS02006239WS02006238        1.69      1.70      1.72      0.85         0.42
  WS02006240WS02006239        1.65      1.65      1.67      0.85         0.42
  WS02006242WS02006240        1.64      1.64      1.66      1.02         0.38
  WS02006243WS02006242        1.61      1.61      1.65      0.01         0.01
  WS02006245WS02006243        1.60      1.60      1.61      0.51         0.42
  WS02006247WS02006245        1.60      1.60      1.60      1.56         0.91
  WS02006248WS02006247        1.59      1.59      1.60      0.01         0.01
  WS02006249WS02006248        1.58      1.59      1.58      0.97         0.01
  WS02006251WS02006249        1.58      1.58      1.59      1.68         1.56
  WS02006252WS02006251        1.69      1.69      1.70      1.54         0.01
  WS02006253WS02006251        1.58      1.58      1.58      0.32         0.01
  WS02006256WS02006235        2.30      2.31      4.59      1.17         0.01
  WS02006280WS02006229        0.29      0.29      0.39      0.01         0.01
  WS02006284WS02006280        0.21      0.21      0.28      0.01         0.01
  WS02006287WS02006284        0.09      0.09      0.22      0.01         0.01
  YS02001580YS02001583        0.01      0.01      0.01      0.01         0.01
  YS02001583YS02001586        0.01      0.01      0.20      0.01         0.01
  YS02001586YS02001590        0.21      0.21      0.29      0.01         0.01
  YS02001590YS02001593        0.29      0.29      0.31      0.29         0.01
  YS02001593YS02001596        0.31      0.31      0.40      0.01         0.01
  YS02001596YS02001600        0.44      0.44      0.53      0.01         0.01
  YS02001600YS02001601        0.58      0.58      0.85      0.01         0.01
  YS02001601YS02001602        0.73      0.73      0.89      0.56         0.01
  YS02001602YS02001605        0.69      0.69      0.73      1.76         0.01
  YS02001605YS02001607        0.65      0.69      0.65      0.80         0.65
  YS02001607YS02001610        0.21      0.21      0.24      0.01         0.01
  YS02001610YS02001613        0.21      0.21      0.24      0.01         0.01
  YS02001613YS02001616        0.15      0.15      0.21      0.01         0.01
  YS02001616YS02001619        0.12      0.12      0.15      0.01         0.01
  YS02001619YS02001622        0.11      0.12      0.11      0.32         0.11
  YS02001622YS02001625        0.11      0.11      0.34      0.01         0.01
  YS02001625YS02001629        0.01      0.01      0.34      0.01         0.01
  YS02001629YS02163301        0.32      0.32      0.33      0.16         0.15
  YS02001633YS02163601        0.35      0.35      0.38      0.22         0.22
  YS02001641YS02001644        0.17      0.25      0.17      0.95         0.17
  YS02001644YS02001647        0.01      0.01      0.17      0.01         0.01
  YS02001757CaochengTiaoxuchi        0.01      0.01      0.90      0.01         0.01
  YS02001770YS02001767        0.01      0.01      0.01      0.22         0.01
  YS02001783YS02001784        0.01      0.01      0.01      0.27         0.01
  YS02001784YS02001785        0.01      0.01      0.01      0.47         0.01
  YS02001786YS02001788        0.01      0.01      0.01      0.36         0.01
  YS02001793JiankangQianchi        0.01      0.01      7.67      0.01         0.01
  YS02001887YS02001890        0.01      0.01      0.05      0.01         0.01
  YS02001890YS02001895        0.01      0.01      0.11      0.01         0.01
  YS02001904YS02001907        0.01      0.01      0.34      0.01         0.01
  YS02001907YS02006553        0.48      0.48      0.53      0.01         0.01
  YS02001910YS02001907        0.10      0.10      0.33      0.01         0.01
  YS02001915YS02001910        0.01      0.01      0.10      0.01         0.01
  YS02006553YS02006556        0.24      0.24      0.34      0.01         0.01
  YS02006556YS02006558        0.29      0.29      0.35      0.01         0.01
  YS02006558YS02006561        0.01      0.23      0.01      0.43         0.01
  YS02163301YS02001633        0.33      0.33      0.37      0.01         0.01
  YS02163601YS02164001        0.26      0.26      0.38      0.02         0.01
  YS02164001YS02001641        0.25      0.26      0.25      0.42         0.24
  YSB1154YSB6556              0.26      0.26      0.38      0.01         0.01
  YSB1171HS02004479           0.16      0.16      0.38      0.01         0.01
  YSB1174YSB1171              0.31      0.31      0.57      0.01         0.01
  YSB6556YSB1171              0.26      0.26      0.69      0.01         0.01
  
  
  ***************
  Pumping Summary
  ***************
  
  ---------------------------------------------------------------------------------------------------------
                                                  Min       Avg       Max     Total     Power    % Time Off
                        Percent   Number of      Flow      Flow      Flow    Volume     Usage    Pump Curve
  Pump                 Utilized   Start-Ups       LPS       LPS       LPS  10^6 ltr     Kw-hr    Low   High
  ---------------------------------------------------------------------------------------------------------
  CC-R1                   17.89           2      0.00    683.00    683.00     3.519     62.25    0.0   44.6
  CC-R2                    1.69           1      0.00    683.00    683.00     0.331      5.55    0.0  100.0
  CC-S1                   20.24           2      0.00    200.00    200.00     1.166      7.92    0.0    0.0
  CC-S2                   19.23           2      0.00    200.00    200.00     1.108      7.47    0.0    0.0
  JK-R1                    2.52           3      0.00   1000.00   1000.00     0.725      6.86    0.0    0.0
  JK-R2                    0.16           1      0.00   1000.00   1000.00     0.047      0.36    0.0    0.0
  JK-S                    17.57           4      0.00    300.00    300.00     1.518     24.60    0.0    0.0
  XR-1                    97.91           2      0.00     95.00     95.00     2.679      9.62    0.0    0.0
  XR-2                    93.94           2      0.00     95.00     95.00     2.570      8.78    0.0    0.0
  XR-3                     0.00           1      0.00     95.00     95.00     0.000      0.00    0.0    0.0
  XR-4                     0.00           1      0.00     95.00     95.00     0.000      0.00    0.0    0.0
  

  Analysis begun on:  Tue Jun 20 17:14:38 2023
  Analysis ended on:  Tue Jun 20 17:14:42 2023
  Total elapsed time: 00:00:04