
  OWA STORM WATER MANAGEMENT MODEL - VERSION v5.1.14 (OWA 2022-07-31)
  --------------------------------------------------------------

  WARNING 04: minimum elevation drop used for Conduit WS02004404WS02004405
  WARNING 03: negative offset ignored for Link YS02001904YS02001907
  
  *********************************************************
  NOTE: The summary statistics displayed in this report are
  based on results found at every computational time step,  
  not just on results from each reporting time step.
  *********************************************************
  
  ****************
  Analysis Options
  ****************
  Flow Units ............... LPS
  Process Models:
    Rainfall/Runoff ........ YES
    RDII ................... NO
    Snowmelt ............... NO
    Groundwater ............ NO
    Flow Routing ........... YES
    Ponding Allowed ........ NO
    Water Quality .......... NO
  Infiltration Method ...... HORTON
  Flow Routing Method ...... DYNWAVE
  Surcharge Method ......... EXTRAN
  Starting Date ............ 08/28/2015 08:00:00
  Ending Date .............. 08/28/2015 16:00:00
  Antecedent Dry Days ...... 8.0
  Report Time Step ......... 00:01:00
  Wet Time Step ............ 00:01:00
  Dry Time Step ............ 00:01:00
  Routing Time Step ........ 30.00 sec
  Variable Time Step ....... YES
  Maximum Trials ........... 8
  Number of Threads ........ 4
  Head Tolerance ........... 0.001500 m
  
  
  **************************        Volume         Depth
  Runoff Quantity Continuity     hectare-m            mm
  **************************     ---------       -------
  Initial LID Storage ......         0.049         1.488
  Total Precipitation ......         2.809        84.691
  Evaporation Loss .........         0.000         0.000
  Infiltration Loss ........         0.083         2.509
  Surface Runoff ...........         2.108        63.561
  Final Storage ............         0.668        20.146
  Continuity Error (%) .....        -0.043
  
  
  **************************        Volume        Volume
  Flow Routing Continuity        hectare-m      10^6 ltr
  **************************     ---------     ---------
  Dry Weather Inflow .......         0.025         0.251
  Wet Weather Inflow .......         2.107        21.074
  Groundwater Inflow .......         0.000         0.000
  RDII Inflow ..............         0.000         0.000
  External Inflow ..........         0.083         0.834
  External Outflow .........         2.131        21.310
  Flooding Loss ............         0.192         1.919
  Evaporation Loss .........         0.000         0.000
  Exfiltration Loss ........         0.000         0.000
  Initial Stored Volume ....         0.243         2.431
  Final Stored Volume ......         0.182         1.816
  Continuity Error (%) .....        -1.855
  
  
  *************************
  Highest Continuity Errors
  *************************
  Node YS02001583 (-4.41%)
  Node WS02006256 (-3.41%)
  Node YS02001884 (3.32%)
  Node WS02006252 (-2.43%)
  Node YS02001774 (1.15%)
  
  
  ***************************
  Time-Step Critical Elements
  ***************************
  Link WS02006238WS02006235 (30.41%)
  Link YS02001791YS02001793 (19.68%)
  Link WS02004404WS02004405 (14.66%)
  Link YS02006556YS02006558 (7.33%)
  Link WS02003066WSF200 (4.88%)
  
  
  ********************************
  Highest Flow Instability Indexes
  ********************************
  Link WS02006113WS02006111 (36)
  Link YS02001790YS02001791 (31)
  Link WS02006256WS02006235 (30)
  Link WS02006111WS02006112 (24)
  Link WS02006238WS02006235 (23)
  
  
  *************************
  Routing Time Step Summary
  *************************
  Minimum Time Step           :     0.01 sec
  Average Time Step           :     2.88 sec
  Maximum Time Step           :    30.00 sec
  Percent in Steady State     :    -0.00
  Average Iterations per Step :     4.03
  Percent Not Converging      :    22.35
  
  
  ***************************
  Subcatchment Runoff Summary
  ***************************
  
  ------------------------------------------------------------------------------------------------------------------------------
                            Total      Total      Total      Total     Imperv       Perv      Total       Total     Peak  Runoff
                           Precip      Runon       Evap      Infil     Runoff     Runoff     Runoff      Runoff   Runoff   Coeff
  Subcatchment                 mm         mm         mm         mm         mm         mm         mm    10^6 ltr      LPS
  ------------------------------------------------------------------------------------------------------------------------------
  sub60                     84.69       0.00       0.00       1.48      56.60       6.36      62.97        0.83   159.86   0.743
  sub61                     84.69       0.00       0.00       2.28      56.55       9.49      66.04        1.21   233.47   0.780
  sub62                     84.69       0.00       0.00       1.01      60.29       4.32      64.61        1.77   326.71   0.763
  sub63                     84.69       0.00       0.00       4.20      48.44      15.90      64.34        1.46   270.37   0.760
  sub64                     84.69       0.00       0.00       2.02      55.15       7.88      63.03        1.51   271.63   0.744
  sub65                     84.69       0.00       0.00       1.85      59.53       7.20      66.73        1.84   321.70   0.788
  sub66                     84.69       0.00       0.00       4.88      46.85      14.60      61.44        2.87   474.86   0.725
  sub67                     84.69       0.00       0.00       0.99      61.81       4.47      66.28        1.23   244.26   0.783
  sub68                     84.69       0.00       0.00       1.75      54.59       7.28      61.86        1.70   321.34   0.730
  sub69                     84.69       0.00       0.00       1.65      56.97       8.42      65.39        2.42   416.29   0.772
  sub70                     84.69       0.00       0.00       5.42      45.65      18.15      63.80        1.84   293.88   0.753
  sub71                     84.69       0.00       0.00       0.93      54.77       3.91      58.68        1.53   274.68   0.693
  sub72                     84.69       0.00       0.00       0.89      59.17       3.64      62.81        0.86   146.44   0.742
  

  ***********************
  LID Performance Summary
  ***********************

  --------------------------------------------------------------------------------------------------------------------
                                         Total      Evap     Infil   Surface    Drain    Initial     Final  Continuity
                                        Inflow      Loss      Loss   Outflow   Outflow   Storage   Storage       Error
  Subcatchment      LID Control             mm        mm        mm        mm        mm        mm        mm           %
  --------------------------------------------------------------------------------------------------------------------
  sub60             GreenRoof            84.69      0.00      0.00      0.00      0.00      7.05     91.84       -0.11
  sub61             GreenRoof            84.69      0.00      0.00      0.00      0.00      7.05     91.84       -0.11
  sub62             GreenRoof            84.69      0.00      0.00      0.00      0.00      7.05     91.84       -0.11
  sub63             GreenRoof            84.69      0.00      0.00      0.00      0.00      7.05     91.84       -0.11
  sub64             GreenRoof            84.69      0.00      0.00      0.00      0.00      7.05     91.84       -0.11
  sub65             GreenRoof            84.69      0.00      0.00      0.00      0.00      7.05     91.84       -0.11
  sub66             GreenRoof            84.69      0.00      0.00      0.00      0.00      7.05     91.84       -0.11
  sub67             GreenRoof            84.69      0.00      0.00      0.00      0.00      7.05     91.84       -0.11
  sub68             GreenRoof            84.69      0.00      0.00      0.00      0.00      7.05     91.84       -0.11
  sub69             GreenRoof            84.69      0.00      0.00      0.00      0.00      7.05     91.84       -0.11
  sub70             GreenRoof            84.69      0.00      0.00      0.00      0.00      7.05     91.84       -0.11
  sub71             GreenRoof            84.69      0.00      0.00      0.00      0.00      7.05     91.84       -0.11
  sub72             GreenRoof            84.69      0.00      0.00      0.00      0.00      7.05     91.84       -0.11
  
  ******************
  Node Depth Summary
  ******************
  
  ---------------------------------------------------------------------------------
                                 Average  Maximum  Maximum  Time of Max    Reported
                                   Depth    Depth      HGL   Occurrence   Max Depth
  Node                 Type       Meters   Meters   Meters  days hr:min      Meters
  ---------------------------------------------------------------------------------
  WS02003060           JUNCTION     0.24     0.38     5.32     0  02:14        0.38
  WS02003066           JUNCTION     0.20     0.30     5.85     0  02:14        0.30
  WS02003067           JUNCTION     0.51     0.70     6.02     0  02:14        0.70
  WS02003069           JUNCTION     0.27     0.43     5.01     0  03:07        0.43
  WS02003072           JUNCTION     0.33     0.50     4.87     0  03:08        0.50
  WS02003073           JUNCTION     0.19     0.30     4.36     0  03:09        0.30
  WS02004401           JUNCTION     0.62     0.85     6.85     0  03:00        0.85
  WS02004402           JUNCTION     0.65     0.88     6.84     0  02:11        0.88
  WS02004403           JUNCTION     0.67     0.89     6.82     0  03:04        0.89
  WS02004404           JUNCTION     0.75     0.96     6.81     0  03:04        0.96
  WS02004405           JUNCTION     0.75     0.96     6.81     0  03:04        0.96
  WS02004406           JUNCTION     0.76     0.96     6.79     0  03:04        0.96
  WS02004407           JUNCTION     0.18     0.30     6.61     0  03:04        0.30
  WS02004409           JUNCTION     0.41     0.67     6.44     0  03:05        0.67
  WS02004410           JUNCTION     0.44     0.68     6.40     0  03:05        0.68
  WS02004411           JUNCTION     0.46     0.69     6.37     0  02:13        0.69
  WS02004412           JUNCTION     0.48     0.70     6.34     0  03:05        0.70
  WS02004413           JUNCTION     0.64     0.86     6.33     0  03:06        0.86
  WS02006109           JUNCTION     0.69     1.11     7.73     0  01:17        1.00
  WS02006110           JUNCTION     0.68     1.12     7.71     0  01:17        0.94
  WS02006111           JUNCTION     0.18     0.90     7.60     0  00:00        0.40
  WS02006112           JUNCTION     0.78     2.68     8.56     0  00:00        1.14
  WS02006113           JUNCTION     0.28     1.40     8.29     0  00:00        0.46
  WS02006115           JUNCTION     0.50     1.65     7.79     0  00:00        0.86
  WS02006116           JUNCTION     0.59     1.06     7.10     0  00:00        0.83
  WS02006228           JUNCTION     0.69     1.11     7.76     0  01:17        1.04
  WS02006229           JUNCTION     0.66     1.11     7.80     0  01:17        1.03
  WS02006230           JUNCTION     0.68     1.24     7.99     0  01:17        1.11
  WS02006231           JUNCTION     0.49     1.14     8.26     0  01:16        0.86
  WS02006232           JUNCTION     0.63     1.28     8.32     0  03:20        1.11
  WS02006234           JUNCTION     0.58     1.42     8.58     0  03:20        1.39
  WS02006235           JUNCTION     0.63     1.90     9.06     0  03:29        1.90
  WS02006238           JUNCTION     0.66     2.15     9.29     0  03:29        2.15
  WS02006239           JUNCTION     0.62     1.97     9.18     0  03:29        1.97
  WS02006240           JUNCTION     0.58     1.60     8.89     0  03:20        1.60
  WS02006242           JUNCTION     0.65     1.55     8.82     0  03:20        1.55
  WS02006243           JUNCTION     0.57     1.38     8.80     0  03:16        1.31
  WS02006245           JUNCTION     0.57     1.31     8.79     0  03:16        1.19
  WS02006247           JUNCTION     0.58     1.26     8.76     0  03:16        1.19
  WS02006248           JUNCTION     0.54     1.10     8.69     0  01:25        1.10
  WS02006249           JUNCTION     0.57     1.09     8.69     0  01:15        1.09
  WS02006251           JUNCTION     0.56     2.08     9.75     0  01:34        1.66
  WS02006252           JUNCTION     0.36     1.50     9.74     0  01:12        1.25
  WS02006256           JUNCTION     1.36     2.35     9.28     0  00:00        2.35
  WSF200               JUNCTION     0.17     0.29     5.52     0  02:14        0.29
  YS02001580           JUNCTION     0.18     1.05     9.59     0  01:38        0.70
  YS02001583           JUNCTION     0.22     1.06     9.56     0  01:38        0.75
  YS02001586           JUNCTION     0.35     1.13     9.30     0  01:38        1.07
  YS02001590           JUNCTION     0.49     1.40     9.26     0  01:38        1.32
  YS02001593           JUNCTION     0.43     1.32     9.18     0  01:38        1.28
  YS02001596           JUNCTION     0.61     1.77     9.19     0  01:14        1.77
  YS02001600           JUNCTION     0.72     1.87     9.00     0  01:14        1.87
  YS02001601           JUNCTION     0.91     2.06     8.90     0  01:14        2.06
  YS02001602           JUNCTION     0.78     1.87     8.77     0  01:14        1.87
  YS02001605           JUNCTION     0.69     1.69     8.59     0  01:38        1.69
  YS02001607           JUNCTION     0.58     1.43     8.28     0  01:38        1.36
  YS02001610           JUNCTION     0.62     1.48     8.27     0  01:38        1.40
  YS02001613           JUNCTION     0.58     1.42     8.26     0  01:38        1.35
  YS02001616           JUNCTION     0.51     1.34     8.25     0  01:38        1.26
  YS02001619           JUNCTION     0.48     1.30     8.23     0  01:38        1.24
  YS02001622           JUNCTION     0.47     1.26     8.17     0  01:38        1.22
  YS02001625           JUNCTION     0.72     1.47     8.08     0  01:38        1.44
  YS02001629           JUNCTION     0.61     1.49     8.04     0  01:38        1.43
  YS02001633           JUNCTION     0.67     1.47     7.92     0  01:38        1.44
  YS02001641           JUNCTION     0.60     1.20     7.63     0  02:22        1.20
  YS02001644           JUNCTION     0.58     1.12     7.55     0  02:22        1.12
  YS02001647           JUNCTION     0.32     0.75     7.36     0  02:23        0.75
  YS02001649           JUNCTION     0.36     0.87     7.26     0  02:23        0.86
  YS02001652           JUNCTION     0.23     0.66     7.26     0  01:43        0.66
  YS02001655           JUNCTION     0.12     0.40     7.25     0  02:22        0.39
  YS02001658           JUNCTION     0.09     0.24     7.38     0  01:40        0.24
  YS02001661           JUNCTION     0.15     0.29     7.69     0  01:40        0.29
  YS02001664           JUNCTION     0.08     0.20     8.12     0  01:41        0.20
  YS02001745           JUNCTION     0.06     0.17     7.69     0  01:40        0.17
  YS02001748           JUNCTION     0.07     0.19     7.27     0  01:40        0.19
  YS02001751           JUNCTION     0.07     0.23     7.11     0  01:44        0.23
  YS02001754           JUNCTION     0.17     0.52     7.13     0  01:45        0.51
  YS02001757           JUNCTION     0.36     0.86     7.12     0  02:23        0.85
  YS02001759           JUNCTION     0.29     0.76     7.13     0  01:43        0.76
  YS02001762           JUNCTION     0.28     0.73     7.13     0  01:43        0.73
  YS02001765           JUNCTION     0.26     0.69     7.14     0  01:43        0.68
  YS02001767           JUNCTION     0.25     0.66     7.15     0  01:43        0.65
  YS02001770           JUNCTION     0.26     0.68     7.17     0  01:43        0.67
  YS02001774           JUNCTION     0.32     0.75     7.18     0  01:44        0.75
  YS02001779           JUNCTION     0.15     0.50     7.19     0  01:44        0.49
  YS02001783           JUNCTION     0.32     0.80     6.94     0  01:45        0.80
  YS02001784           JUNCTION     0.33     0.78     6.84     0  01:45        0.78
  YS02001786           JUNCTION     0.28     0.63     6.66     0  01:45        0.63
  YS02001788           JUNCTION     0.21     0.50     6.48     0  01:45        0.50
  YS02001790           JUNCTION     0.26     0.59     6.24     0  01:44        0.59
  YS02001791           JUNCTION     0.16     0.36     5.83     0  01:46        0.35
  YS02001793           JUNCTION     0.08     0.18     5.01     0  01:46        0.18
  YS02001882           JUNCTION     0.35     0.85     7.57     0  01:44        0.85
  YS02001884           JUNCTION     0.43     0.95     7.57     0  01:44        0.95
  YS02001887           JUNCTION     0.51     1.03     7.57     0  01:44        1.02
  YS02001890           JUNCTION     0.54     1.06     7.57     0  01:44        1.05
  YS02001895           JUNCTION     0.32     0.81     7.56     0  01:45        0.81
  YS02001898           JUNCTION     0.32     0.83     7.56     0  01:44        0.82
  YS02001901           JUNCTION     0.44     0.95     7.56     0  01:44        0.95
  YS02001904           JUNCTION     0.42     0.93     7.56     0  01:45        0.93
  YS02001907           JUNCTION     0.73     1.28     7.56     0  01:45        1.28
  YS02001910           JUNCTION     0.53     1.06     7.57     0  01:44        1.06
  YS02001915           JUNCTION     0.34     0.85     7.57     0  01:44        0.85
  YS02001918           JUNCTION     0.15     0.51     7.57     0  01:44        0.51
  YS02001920           JUNCTION     0.23     0.58     7.58     0  01:44        0.57
  YS02001923           JUNCTION     0.08     0.32     7.58     0  01:44        0.31
  YS02001926           JUNCTION     0.15     0.31     7.76     0  01:42        0.31
  YS02001929           JUNCTION     0.08     0.18     7.87     0  01:42        0.18
  YS02006553           JUNCTION     0.73     1.27     7.55     0  01:45        1.27
  YS02006556           JUNCTION     0.70     1.22     7.53     0  01:45        1.22
  YS02006558           JUNCTION     0.74     1.25     7.52     0  01:45        1.25
  YS02006561           JUNCTION     0.18     0.41     7.07     0  01:43        0.41
  YS02163301           JUNCTION     0.63     1.47     7.99     0  01:38        1.42
  YS02163601           JUNCTION     0.68     1.38     7.78     0  01:38        1.37
  YS02164001           JUNCTION     0.60     1.24     7.70     0  01:38        1.23
  CC-1                 OUTFALL      0.00     0.00     0.00     0  00:00        0.00
  CC-2                 OUTFALL      0.00     0.00     0.00     0  00:00        0.00
  JK-1                 OUTFALL      0.00     0.00     0.00     0  00:00        0.00
  JK-2                 OUTFALL      0.00     0.00     0.00     0  00:00        0.00
  WSC                  OUTFALL      0.19     0.30     0.97     0  03:09        0.30
  CC-storage           STORAGE      0.63     1.12     6.62     0  03:03        1.12
  JK-storage           STORAGE      1.08     3.00     3.80     0  00:00        1.99
  
  
  *******************
  Node Inflow Summary
  *******************
  
  -------------------------------------------------------------------------------------------------
                                  Maximum  Maximum                  Lateral       Total        Flow
                                  Lateral    Total  Time of Max      Inflow      Inflow     Balance
                                   Inflow   Inflow   Occurrence      Volume      Volume       Error
  Node                 Type           LPS      LPS  days hr:min    10^6 ltr    10^6 ltr     Percent
  -------------------------------------------------------------------------------------------------
  WS02003060           JUNCTION     16.53   553.40     0  02:14       0.476        5.87       0.041
  WS02003066           JUNCTION      0.00   536.74     0  03:06           0        5.39       0.027
  WS02003067           JUNCTION      0.00   536.72     0  03:06           0         5.4       0.079
  WS02003069           JUNCTION      0.32   553.62     0  03:07     0.00922        5.87       0.071
  WS02003072           JUNCTION      0.00   553.50     0  03:08           0        5.87       0.128
  WS02003073           JUNCTION      1.82   555.20     0  03:08      0.0524        5.91       0.098
  WS02004401           JUNCTION      0.00  1697.33     0  00:00           0        5.51       0.209
  WS02004402           JUNCTION      0.00  1210.03     0  00:01           0        5.49       0.204
  WS02004403           JUNCTION      0.00   817.89     0  00:01           0        5.48       0.197
  WS02004404           JUNCTION      0.16   816.21     0  00:01     0.00467        5.48       0.166
  WS02004405           JUNCTION      0.04   787.87     0  00:01      0.0011        5.47       0.228
  WS02004406           JUNCTION      0.00   736.08     0  00:02           0        5.46       0.406
  WS02004407           JUNCTION      0.00   537.73     0  03:04           0        5.43       0.023
  WS02004409           JUNCTION      0.00   537.45     0  03:04           0        5.43       0.055
  WS02004410           JUNCTION      0.00   537.22     0  03:05           0        5.43       0.089
  WS02004411           JUNCTION      0.00   537.11     0  03:05           0        5.42       0.110
  WS02004412           JUNCTION      0.00   537.01     0  03:05           0        5.42       0.143
  WS02004413           JUNCTION      0.00   536.92     0  03:06           0        5.41       0.257
  WS02006109           JUNCTION      1.23  1308.01     0  00:00      0.0354        5.44       0.138
  WS02006110           JUNCTION      0.00   553.67     0  01:17           0        5.41      -0.661
  WS02006111           JUNCTION      0.00  1176.04     0  00:00           0        5.43      -0.728
  WS02006112           JUNCTION      0.00  2307.30     0  00:00           0        5.48       0.017
  WS02006113           JUNCTION      0.00   572.75     0  01:17           0         5.4      -0.892
  WS02006115           JUNCTION      0.00   898.70     0  00:00           0        5.45      -0.584
  WS02006116           JUNCTION      0.00  1144.85     0  00:01           0        5.48      -0.507
  WS02006228           JUNCTION      0.00   552.09     0  01:17           0        5.38       0.056
  WS02006229           JUNCTION      0.00   552.35     0  01:17           0        5.36       0.145
  WS02006230           JUNCTION     10.28   571.88     0  03:20       0.296        5.35       0.046
  WS02006231           JUNCTION      0.00   556.30     0  01:16           0        5.04      -0.004
  WS02006232           JUNCTION      0.00   556.47     0  01:16           0        5.05       0.146
  WS02006234           JUNCTION      0.00   556.74     0  01:16           0        5.03      -0.256
  WS02006235           JUNCTION      0.00   556.79     0  01:16           0        5.18       0.248
  WS02006238           JUNCTION      0.00   426.83     0  03:29           0        3.41      -0.063
  WS02006239           JUNCTION      0.00   421.57     0  03:24           0         3.3      -0.037
  WS02006240           JUNCTION      0.00   420.97     0  03:29           0        3.26      -0.077
  WS02006242           JUNCTION      0.00   423.15     0  03:30           0        3.25      -0.067
  WS02006243           JUNCTION      0.00   423.52     0  03:30           0        3.25      -0.071
  WS02006245           JUNCTION      0.00   422.26     0  03:30           0        3.26       0.330
  WS02006247           JUNCTION      0.00   421.73     0  03:30           0        3.26       0.026
  WS02006248           JUNCTION      0.00   420.87     0  03:30           0        3.27       0.067
  WS02006249           JUNCTION      0.00   793.83     0  00:00           0        3.75       0.213
  WS02006251           JUNCTION      0.08   453.22     0  00:00     0.00222        3.74      -0.487
  WS02006252           JUNCTION      0.00   544.58     0  01:25           0        3.65      -2.377
  WS02006256           JUNCTION      0.00   300.00     0  00:00           0        2.62      -3.300
  WSF200               JUNCTION      0.00   536.76     0  03:06           0        5.39       0.010
  YS02001580           JUNCTION      0.00    77.02     0  01:38           0     0.00675       0.658
  YS02001583           JUNCTION      0.00   129.59     0  01:38           0      0.0254      -4.222
  YS02001586           JUNCTION    293.88   293.88     0  02:22        1.84        1.86       0.103
  YS02001590           JUNCTION      0.00   293.83     0  02:22           0        1.84      -0.052
  YS02001593           JUNCTION      0.00   293.85     0  02:22           0        1.84       0.007
  YS02001596           JUNCTION      0.00   293.87     0  02:22           0        1.84      -0.032
  YS02001600           JUNCTION      0.00   293.88     0  02:22           0        1.84       0.018
  YS02001601           JUNCTION    416.29   690.13     0  02:21        2.42        4.26       0.009
  YS02001602           JUNCTION      0.00   510.00     0  01:14           0        3.76       0.007
  YS02001605           JUNCTION      0.00   513.09     0  01:14           0        3.76       0.007
  YS02001607           JUNCTION      0.00   515.79     0  01:14           0        3.76       0.041
  YS02001610           JUNCTION      0.00   509.42     0  03:00           0        3.75       0.062
  YS02001613           JUNCTION      0.00   509.92     0  03:00           0        3.76       0.040
  YS02001616           JUNCTION      0.00   510.60     0  03:00           0        3.76       0.007
  YS02001619           JUNCTION    474.86   928.80     0  02:21        2.86        6.62      -0.008
  YS02001622           JUNCTION      0.00   928.92     0  02:21           0        6.61      -0.009
  YS02001625           JUNCTION      0.00   929.01     0  02:21           0        6.62       0.156
  YS02001629           JUNCTION      0.00   929.06     0  02:21           0        6.61      -0.003
  YS02001633           JUNCTION    321.90  1236.21     0  02:21        1.84        8.46       0.035
  YS02001641           JUNCTION      0.00  1236.24     0  02:21           0        8.46       0.032
  YS02001644           JUNCTION    271.67  1503.71     0  01:41        1.51        9.97       0.029
  YS02001647           JUNCTION      0.00  1504.04     0  01:41           0        9.95       0.005
  YS02001649           JUNCTION      0.00  1764.17     0  01:40           0        11.4       0.006
  YS02001652           JUNCTION      0.00   303.84     0  01:39           0        1.46      -0.142
  YS02001655           JUNCTION      0.15   272.48     0  01:40     0.00443        1.46       0.112
  YS02001658           JUNCTION      0.00   270.48     0  01:40           0        1.46      -0.005
  YS02001661           JUNCTION      0.00   270.36     0  01:41           0        1.46       0.029
  YS02001664           JUNCTION    270.37   270.37     0  01:41        1.46        1.46      -0.010
  YS02001745           JUNCTION    159.87   159.87     0  01:40       0.827       0.827      -0.004
  YS02001748           JUNCTION      0.04   159.84     0  01:40      0.0013       0.828      -0.003
  YS02001751           JUNCTION      0.01   159.81     0  01:40    0.000317       0.829       0.121
  YS02001754           JUNCTION      0.26   185.78     0  01:45     0.00749       0.835      -0.179
  YS02001757           JUNCTION      0.00  2458.98     0  01:43           0        15.2       0.031
  YS02001759           JUNCTION    233.51   533.81     0  01:45        1.21           3      -0.010
  YS02001762           JUNCTION      0.00   337.12     0  01:45           0        1.79       0.011
  YS02001765           JUNCTION      0.00   329.42     0  01:45           0        1.79       0.016
  YS02001767           JUNCTION      0.54   339.62     0  01:43      0.0154        1.79      -0.026
  YS02001770           JUNCTION    326.86   337.89     0  01:43        1.77        1.85       0.028
  YS02001774           JUNCTION      0.00    74.99     0  01:40           0       0.113       1.159
  YS02001779           JUNCTION      0.01    42.01     0  01:40    0.000144       0.038       0.195
  YS02001783           JUNCTION      0.00   873.74     0  01:44           0        5.39       0.007
  YS02001784           JUNCTION      1.06   875.80     0  01:45      0.0305        5.42       0.010
  YS02001786           JUNCTION      0.06   874.24     0  01:45     0.00162        5.42       0.012
  YS02001788           JUNCTION      0.07   873.96     0  01:45     0.00204        5.42       0.007
  YS02001790           JUNCTION      0.15   875.09     0  01:45     0.00446        5.42       0.039
  YS02001791           JUNCTION      0.00   924.93     0  01:44           0        5.42      -0.025
  YS02001793           JUNCTION      0.00   886.00     0  01:46           0        5.42       0.005
  YS02001882           JUNCTION      0.00    58.97     0  01:11           0      0.0259       2.869
  YS02001884           JUNCTION      0.00   105.46     0  01:11           0      0.0767       3.434
  YS02001887           JUNCTION    244.71   244.71     0  01:40        1.24        1.29       0.328
  YS02001890           JUNCTION      0.00   231.06     0  01:42           0        1.24       0.415
  YS02001895           JUNCTION      0.00   240.08     0  01:14           0        1.23       0.231
  YS02001898           JUNCTION      0.00   237.14     0  01:14           0        1.23      -0.036
  YS02001901           JUNCTION      0.00   224.45     0  01:42           0        1.24       0.281
  YS02001904           JUNCTION      0.00   221.86     0  01:19           0        1.25       0.227
  YS02001907           JUNCTION      0.00   607.87     0  01:46           0        3.73       0.447
  YS02001910           JUNCTION      0.00   410.08     0  01:44           0        2.48       0.276
  YS02001915           JUNCTION    274.69   407.20     0  01:44        1.53        2.48       0.062
  YS02001918           JUNCTION      0.00   163.83     0  01:44           0       0.947       0.036
  YS02001920           JUNCTION      2.87   156.82     0  01:44      0.0827       0.948       0.120
  YS02001923           JUNCTION      0.04   146.41     0  01:42     0.00109       0.866      -0.000
  YS02001926           JUNCTION      0.05   146.48     0  01:42      0.0015       0.865       0.033
  YS02001929           JUNCTION    146.44   146.44     0  01:42       0.863       0.863      -0.009
  YS02006553           JUNCTION      0.00   607.93     0  01:46           0        3.73       0.288
  YS02006556           JUNCTION      0.00   608.08     0  01:45           0        3.75       0.205
  YS02006558           JUNCTION    322.22   874.84     0  01:45        1.73        5.43       0.052
  YS02006561           JUNCTION      0.00   876.03     0  01:45           0        5.39       0.005
  YS02163301           JUNCTION      0.00   930.37     0  02:23           0        6.62       0.020
  YS02163601           JUNCTION      0.11  1236.33     0  02:21     0.00317        8.45       0.057
  YS02164001           JUNCTION      0.00  1236.31     0  02:21           0        8.45       0.026
  CC-1                 OUTFALL       0.00   683.00     0  00:00           0        6.23       0.000
  CC-2                 OUTFALL       0.00   683.00     0  00:00           0        6.23       0.000
  JK-1                 OUTFALL       0.00  1000.00     0  00:00           0        1.47       0.000
  JK-2                 OUTFALL       0.00  1000.00     0  00:00           0        1.47       0.000
  WSC                  OUTFALL       0.00   555.10     0  03:09           0        5.91       0.000
  CC-storage           STORAGE       0.00  2392.49     0  01:43           0        17.5      -0.136
  JK-storage           STORAGE       0.00   885.67     0  01:46           0        5.57      -0.315
  
  
  **********************
  Node Surcharge Summary
  **********************
  
  Surcharging occurs when water rises above the top of the highest conduit.
  ---------------------------------------------------------------------
                                               Max. Height   Min. Depth
                                   Hours       Above Crown    Below Rim
  Node                 Type      Surcharged         Meters       Meters
  ---------------------------------------------------------------------
  WS02006109           JUNCTION        2.29          0.288        1.532
  WS02006110           JUNCTION        1.83          0.211        1.639
  WS02006111           JUNCTION        0.01          0.087        1.783
  WS02006112           JUNCTION        2.01          1.680        0.000
  WS02006113           JUNCTION        0.01          0.600        1.330
  WS02006115           JUNCTION        0.01          0.642        1.608
  WS02006116           JUNCTION        0.01          0.000        2.290
  WS02006228           JUNCTION        2.29          0.278        1.922
  WS02006229           JUNCTION        2.29          0.308        2.142
  WS02006230           JUNCTION        1.80          0.161        1.409
  WS02006231           JUNCTION        2.05          0.431        1.099
  WS02006232           JUNCTION        2.32          0.581        0.899
  WS02006234           JUNCTION        2.26          0.704        0.536
  WS02006235           JUNCTION        2.29          1.188        0.102
  WS02006238           JUNCTION        2.31          1.430        0.000
  WS02006239           JUNCTION        2.30          1.232        0.058
  WS02006240           JUNCTION        2.29          0.890        0.500
  WS02006242           JUNCTION        2.30          0.820        0.000
  WS02006243           JUNCTION        2.28          0.670        0.100
  WS02006245           JUNCTION        2.28          0.595        0.255
  WS02006247           JUNCTION        2.28          0.549        0.211
  WS02006248           JUNCTION        2.26          0.380        0.000
  WS02006249           JUNCTION        2.27          0.390        0.000
  WS02006251           JUNCTION        2.03          1.050        0.130
  WS02006252           JUNCTION        2.57          1.100        0.000
  WS02006256           JUNCTION        7.12          2.050        0.000
  YS02001580           JUNCTION        0.76          0.450        0.000
  YS02001583           JUNCTION        0.86          0.424        0.076
  YS02001586           JUNCTION        1.49          0.510        0.000
  YS02001590           JUNCTION        1.64          0.748        0.002
  YS02001593           JUNCTION        1.64          0.701        0.139
  YS02001596           JUNCTION        1.83          1.040        0.030
  YS02001600           JUNCTION        2.01          1.190        0.000
  YS02001601           JUNCTION        2.16          1.440        0.000
  YS02001602           JUNCTION        2.11          1.270        0.000
  YS02001605           JUNCTION        2.09          1.087        0.093
  YS02001607           JUNCTION        1.51          0.431        0.249
  YS02001610           JUNCTION        1.56          0.476        0.204
  YS02001613           JUNCTION        1.50          0.421        0.279
  YS02001616           JUNCTION        1.40          0.335        0.275
  YS02001619           JUNCTION        1.39          0.300        0.310
  YS02001622           JUNCTION        1.39          0.262        0.358
  YS02001625           JUNCTION        1.71          0.475        0.305
  YS02001629           JUNCTION        0.34          0.108        0.362
  YS02001633           JUNCTION        1.72          0.448        0.612
  YS02001641           JUNCTION        1.54          0.196        0.904
  YS02001644           JUNCTION        1.41          0.122        0.798
  YS02001783           JUNCTION        0.02          0.004        1.596
  YS02001890           JUNCTION        0.03          0.010        0.750
  YS02001907           JUNCTION        1.62          0.265        0.685
  YS02001910           JUNCTION        0.29          0.061        1.039
  YS02006553           JUNCTION        1.65          0.268        0.922
  YS02006556           JUNCTION        0.85          0.179        1.171
  YS02006558           JUNCTION        0.73          0.152        1.248
  YS02163301           JUNCTION        1.69          0.470        0.560
  YS02163601           JUNCTION        1.77          0.383        0.697
  YS02164001           JUNCTION        1.56          0.240        0.860
  
  
  *********************
  Node Flooding Summary
  *********************
  
  Flooding refers to all water that overflows a node, whether it ponds or not.
  --------------------------------------------------------------------------
                                                             Total   Maximum
                                 Maximum   Time of Max       Flood    Ponded
                        Hours       Rate    Occurrence      Volume     Depth
  Node                 Flooded       LPS   days hr:min    10^6 ltr    Meters
  --------------------------------------------------------------------------
  WS02006112              0.01   1547.89      0  00:00       0.047     0.000
  WS02006238              0.01     19.39      0  03:29       0.000     0.000
  WS02006242              0.01      6.97      0  03:20       0.000     0.000
  WS02006248              0.03     29.58      0  03:20       0.001     0.000
  WS02006249              1.95    146.43      0  01:34       0.477     0.000
  WS02006252              0.01    494.46      0  01:25       0.004     0.000
  WS02006256              2.42    289.73      0  03:22       0.902     0.000
  YS02001580              0.01     46.03      0  01:38       0.000     0.000
  YS02001586              0.01     70.06      0  01:38       0.001     0.000
  YS02001600              0.01      1.70      0  01:38       0.000     0.000
  YS02001601              1.38    236.52      0  02:21       0.505     0.000
  YS02001602              0.01      0.27      0  01:14       0.000     0.000
  
  
  **********************
  Storage Volume Summary
  **********************
  
  --------------------------------------------------------------------------------------------------
                         Average     Avg  Evap Exfil       Maximum     Max    Time of Max    Maximum
                          Volume    Pcnt  Pcnt  Pcnt        Volume    Pcnt     Occurrence    Outflow
  Storage Unit           1000 m3    Full  Loss  Loss       1000 m3    Full    days hr:min        LPS
  --------------------------------------------------------------------------------------------------
  CC-storage               1.766      28     0     0         3.126      49       0  03:03    1794.81
  JK-storage               0.054      19     0     0         0.151      52       0  00:00    2300.00
  
  
  ***********************
  Outfall Loading Summary
  ***********************
  
  -----------------------------------------------------------
                         Flow       Avg       Max       Total
                         Freq      Flow      Flow      Volume
  Outfall Node           Pcnt       LPS       LPS    10^6 ltr
  -----------------------------------------------------------
  CC-1                  49.19    683.00    683.00       6.229
  CC-2                  49.19    683.00    683.00       6.229
  JK-1                   8.25   1000.00   1000.00       1.472
  JK-2                   8.25   1000.00   1000.00       1.472
  WSC                   99.99    282.15    555.10       5.908
  -----------------------------------------------------------
  System                42.97   3648.15    555.10      21.310
  
  
  ********************
  Link Flow Summary
  ********************
  
  -----------------------------------------------------------------------------
                                 Maximum  Time of Max   Maximum    Max/    Max/
                                  |Flow|   Occurrence   |Veloc|    Full    Full
  Link                 Type          LPS  days hr:min     m/sec    Flow   Depth
  -----------------------------------------------------------------------------
  1                    CONDUIT    555.10     0  03:09      2.83    0.19    0.30
  WS02003060WS02003069 CONDUIT    553.30     0  03:07      1.64    0.22    0.34
  WS02003066WSF200     CONDUIT    536.76     0  03:06      2.85    0.09    0.22
  WS02003067WS02003066 CONDUIT    536.74     0  03:06      1.21    0.17    0.42
  WS02003069WS02003072 CONDUIT    553.50     0  03:08      1.37    0.27    0.39
  WS02003072WS02003073 CONDUIT    553.38     0  03:08      1.44    1.20    0.37
  WS02004401WS02004402 CONDUIT   1210.03     0  00:01      2.53    1.45    0.86
  WS02004402WS02004403 CONDUIT    817.89     0  00:01      2.15    1.18    0.88
  WS02004403WS02004404 CONDUIT    816.05     0  00:01      1.91    0.59    0.93
  WS02004404WS02004405 CONDUIT    787.83     0  00:01      2.33    7.72    0.96
  WS02004405WS02004406 CONDUIT    736.08     0  00:02      2.18    1.45    0.96
  WS02004406WS02004407 CONDUIT    537.73     0  03:04      1.04    0.24    0.63
  WS02004407WS02004409 CONDUIT    537.45     0  03:04      1.96    0.19    0.48
  WS02004409WS02004410 CONDUIT    537.22     0  03:05      1.33    0.69    0.67
  WS02004410WS02004411 CONDUIT    537.11     0  03:05      1.23    0.73    0.69
  WS02004411WS02004412 CONDUIT    537.01     0  03:05      1.16    0.76    0.69
  WS02004412WS02004413 CONDUIT    536.92     0  03:06      1.15    0.36    0.78
  WS02004413WS02003067 CONDUIT    536.72     0  03:06      1.11    0.23    0.59
  WS02006109WS02006110 CONDUIT   1306.78     0  00:00      3.14    2.51    1.00
  WS02006110WS02006113 CONDUIT    572.75     0  01:17      1.38    0.52    1.00
  WS02006111WS02006112 CONDUIT   2307.30     0  00:00      9.18    1.10    0.91
  WS02006112WS02006115 CONDUIT    898.70     0  00:00      1.15    0.53    1.00
  WS02006113WS02006111 CONDUIT   1176.04     0  00:00      2.47    1.41    1.00
  WS02006115WS02006116 CONDUIT   1144.85     0  00:01      1.76    1.47    1.00
  WS02006116WS02004401 CONDUIT   1697.33     0  00:00      3.01    2.34    0.84
  WS02006228WS02006109 CONDUIT    551.21     0  01:17      1.40    2.41    1.00
  WS02006229WS02006228 CONDUIT    552.09     0  01:17      1.25    1.83    1.00
  WS02006230WS02006229 CONDUIT    552.35     0  01:17      1.44   12.29    1.00
  WS02006231WS02006230 CONDUIT    561.60     0  03:20      1.54    8.52    1.00
  WS02006232WS02006231 CONDUIT    556.30     0  01:16      1.45    1.17    1.00
  WS02006234WS02006232 CONDUIT    556.47     0  01:16      1.45    1.13    1.00
  WS02006235WS02006234 CONDUIT    556.74     0  01:16      1.45    5.87    1.00
  WS02006238WS02006235 CONDUIT    452.30     0  03:29      1.48    1.01    1.00
  WS02006239WS02006238 CONDUIT    426.83     0  03:29      1.11    1.37    1.00
  WS02006240WS02006239 CONDUIT    421.57     0  03:24      1.27    1.33    1.00
  WS02006242WS02006240 CONDUIT    420.97     0  03:29      1.14    1.67    1.00
  WS02006243WS02006242 CONDUIT    423.15     0  03:30      1.40    0.90    1.00
  WS02006245WS02006243 CONDUIT    423.52     0  03:30      1.46    1.25    1.00
  WS02006247WS02006245 CONDUIT    422.26     0  03:30      1.46    3.35    1.00
  WS02006248WS02006247 CONDUIT    421.73     0  03:30      1.50    0.92    1.00
  WS02006249WS02006248 CONDUIT    420.87     0  03:30      1.44    2.31    1.00
  WS02006251WS02006249 CONDUIT    793.83     0  00:00      2.76    2.29    1.00
  WS02006252WS02006251 CONDUIT    453.14     0  00:00     33.39    1.66    1.00
  WS02006256WS02006235 CONDUIT    288.76     0  00:01      4.23    3.06    1.00
  WSF200WS02003060     CONDUIT    536.87     0  02:14      2.06    0.12    0.28
  YS02001580YS02001583 CONDUIT     77.02     0  01:38      0.55    0.30    1.00
  YS02001583YS02001586 CONDUIT    129.59     0  01:38      0.53    0.20    1.00
  YS02001586YS02001590 CONDUIT    293.83     0  02:22      1.29    0.51    1.00
  YS02001590YS02001593 CONDUIT    293.85     0  02:22      1.07    1.84    1.00
  YS02001593YS02001596 CONDUIT    293.87     0  02:22      1.74    0.46    1.00
  YS02001596YS02001600 CONDUIT    293.88     0  02:22      1.25    0.57    1.00
  YS02001600YS02001601 CONDUIT    293.88     0  02:22      1.04    0.51    1.00
  YS02001601YS02001602 CONDUIT    510.00     0  01:14      1.80    1.84    1.00
  YS02001602YS02001605 CONDUIT    513.09     0  01:14      1.81   10.86    1.00
  YS02001605YS02001607 CONDUIT    515.79     0  01:14      1.82    2.83    1.00
  YS02001607YS02001610 CONDUIT    509.42     0  03:00      0.78    0.48    1.00
  YS02001610YS02001613 CONDUIT    509.92     0  03:00      0.74    0.59    1.00
  YS02001613YS02001616 CONDUIT    510.60     0  03:00      0.80    0.44    1.00
  YS02001616YS02001619 CONDUIT    515.73     0  01:17      0.84    0.90    1.00
  YS02001619YS02001622 CONDUIT    928.92     0  02:21      1.74    1.37    1.00
  YS02001622YS02001625 CONDUIT    929.01     0  02:21      1.18    0.50    1.00
  YS02001625YS02001629 CONDUIT    929.06     0  02:21      1.18    0.44    1.00
  YS02001629YS02163301 CONDUIT    930.37     0  02:23      1.18    1.15    1.00
  YS02001633YS02163601 CONDUIT   1236.22     0  02:21      1.57    1.30    1.00
  YS02001641YS02001644 CONDUIT   1236.17     0  02:21      1.57    4.00    1.00
  YS02001644YS02001647 CONDUIT   1504.04     0  01:41      2.07    0.88    0.88
  YS02001647YS02001649 CONDUIT   1506.16     0  01:40      2.35    0.80    0.81
  YS02001649YS02001757 CONDUIT   1772.32     0  01:40      2.59    1.08    0.86
  YS02001652YS02001649 CONDUIT    295.82     0  01:40      1.34    0.15    0.76
  YS02001655YS02001652 CONDUIT    303.84     0  01:39      1.71    0.15    0.51
  YS02001658YS02001655 CONDUIT    272.32     0  01:40      1.86    0.12    0.31
  YS02001661YS02001658 CONDUIT    270.48     0  01:40      2.03    0.11    0.23
  YS02001664YS02001661 CONDUIT    270.36     0  01:41      1.83    0.08    0.24
  YS02001745YS02001748 CONDUIT    159.79     0  01:40      1.84    0.06    0.17
  YS02001748YS02001751 CONDUIT    159.80     0  01:40      1.54    0.08    0.21
  YS02001751YS02001754 CONDUIT    185.52     0  01:45      1.53    0.09    0.34
  YS02001754YS02001757 CONDUIT    213.11     0  01:45      1.05    0.09    0.69
  YS02001757CaochengTiaoxuchi CONDUIT   2392.49     0  01:43      4.10    1.04    0.90
  YS02001759YS02001757 CONDUIT    529.47     0  01:45      1.29    0.38    0.81
  YS02001762YS02001759 CONDUIT    346.13     0  01:45      0.76    0.40    0.75
  YS02001765YS02001762 CONDUIT    337.12     0  01:45      0.86    0.32    0.71
  YS02001767YS02001765 CONDUIT    329.42     0  01:45      0.94    0.41    0.67
  YS02001770YS02001767 CONDUIT    339.08     0  01:43      0.89    1.34    0.66
  YS02001774YS02001770 CONDUIT     74.99     0  01:40      0.73    0.05    0.70
  YS02001779YS02001774 CONDUIT     49.46     0  01:44      0.20    0.02    0.62
  YS02001783YS02001784 CONDUIT    874.74     0  01:45      1.75    1.21    0.99
  YS02001784YS02001785 CONDUIT    874.18     0  01:45      1.87    2.03    0.88
  YS02001786YS02001788 CONDUIT    873.89     0  01:45      2.30    1.68    0.71
  YS02001788YS02001790 CONDUIT    874.94     0  01:45      2.41    0.64    0.68
  YS02001790YS02001791 CONDUIT    924.93     0  01:44      3.00    1.01    0.59
  YS02001791YS02001793 CONDUIT    886.00     0  01:46      6.07    0.38    0.34
  YS02001793JiankangQianchi CONDUIT    885.67     0  01:46      1.84    0.07    0.59
  YS02001882YS02001884 CONDUIT     58.97     0  01:11      0.41    0.07    0.87
  YS02001884YS02001887 CONDUIT    105.46     0  01:11      0.35    0.14    0.96
  YS02001887YS02001890 CONDUIT    231.06     0  01:42      0.41    0.40    1.00
  YS02001890YS02001895 CONDUIT    240.08     0  01:14      0.44    0.11    0.91
  YS02001895YS02001898 CONDUIT    237.14     0  01:14      0.71    0.41    0.80
  YS02001898YS02001901 CONDUIT    224.45     0  01:42      0.58    0.14    0.89
  YS02001901YS02001904 CONDUIT    221.86     0  01:19      0.64    0.34    0.94
  YS02001904YS02001907 CONDUIT    242.59     0  01:19      0.37    0.08    0.97
  YS02001907YS02006553 CONDUIT    607.93     0  01:46      0.68    0.72    1.00
  YS02001910YS02001907 CONDUIT    409.38     0  01:44      0.52    0.23    1.00
  YS02001915YS02001910 CONDUIT    410.08     0  01:44      1.13    0.20    0.93
  YS02001918YS02001915 CONDUIT    164.10     0  01:46      0.44    0.09    0.68
  YS02001920YS02001918 CONDUIT    163.83     0  01:44      0.73    0.16    0.54
  YS02001923YS02001920 CONDUIT    153.95     0  01:44      0.79    0.07    0.44
  YS02001926YS02001923 CONDUIT    146.38     0  01:42      0.89    0.21    0.26
  YS02001929YS02001926 CONDUIT    146.43     0  01:42      0.97    0.07    0.25
  YS02006553YS02006556 CONDUIT    608.08     0  01:45      0.77    0.52    1.00
  YS02006556YS02006558 CONDUIT    608.61     0  01:46      0.77    0.48    1.00
  YS02006558YS02006561 CONDUIT    876.03     0  01:45      3.46    1.94    0.84
  YS02006561YS02001783 CONDUIT    873.74     0  01:44      2.15    0.45    0.76
  YS02163301YS02001633 CONDUIT    930.13     0  02:23      1.18    0.87    1.00
  YS02163601YS02164001 CONDUIT   1236.31     0  02:21      1.57    1.10    1.00
  YS02164001YS02001641 CONDUIT   1236.24     0  02:21      1.57    1.69    1.00
  CC-R1                PUMP       683.00     0  00:00              1.00
  CC-R2                PUMP       683.00     0  00:00              1.00
  CC-S1                PUMP       200.00     0  00:00              1.00
  CC-S2                PUMP       200.00     0  00:00              1.00
  JK-R1                PUMP      1000.00     0  00:00              1.00
  JK-R2                PUMP      1000.00     0  00:00              1.00
  JK-S                 PUMP       300.00     0  00:00              1.00
  
  
  ***************************
  Flow Classification Summary
  ***************************
  
  -------------------------------------------------------------------------------------
                      Adjusted    ---------- Fraction of Time in Flow Class ---------- 
                       /Actual         Up    Down  Sub   Sup   Up    Down  Norm  Inlet 
  Conduit               Length    Dry  Dry   Dry   Crit  Crit  Crit  Crit  Ltd   Ctrl  
  -------------------------------------------------------------------------------------
  1                       1.00   0.00  0.00  0.00  0.00  1.00  0.00  0.00  0.43  0.00
  WS02003060WS02003069    1.00   0.00  0.00  0.00  0.98  0.02  0.00  0.00  0.69  0.00
  WS02003066WSF200        1.00   0.04  0.00  0.00  0.00  0.96  0.00  0.00  0.73  0.00
  WS02003067WS02003066    1.00   0.02  0.01  0.00  0.96  0.00  0.00  0.00  0.00  0.00
  WS02003069WS02003072    1.00   0.00  0.00  0.00  1.00  0.00  0.00  0.00  0.69  0.00
  WS02003072WS02003073    1.00   0.00  0.00  0.00  0.00  0.00  0.00  1.00  0.00  0.00
  WS02004401WS02004402    1.00   0.00  0.00  0.00  1.00  0.00  0.00  0.00  0.00  0.00
  WS02004402WS02004403    1.00   0.00  0.00  0.00  1.00  0.00  0.00  0.00  0.00  0.00
  WS02004403WS02004404    1.00   0.00  0.00  0.00  1.00  0.00  0.00  0.00  0.00  0.00
  WS02004404WS02004405    1.00   0.00  0.00  0.00  1.00  0.00  0.00  0.00  0.00  0.00
  WS02004405WS02004406    1.00   0.00  0.00  0.00  1.00  0.00  0.00  0.00  0.00  0.00
  WS02004406WS02004407    1.00   0.00  0.00  0.00  1.00  0.00  0.00  0.00  0.00  0.00
  WS02004407WS02004409    1.00   0.00  0.00  0.00  0.97  0.02  0.00  0.00  0.99  0.00
  WS02004409WS02004410    1.00   0.00  0.00  0.00  0.99  0.00  0.00  0.00  0.00  0.00
  WS02004410WS02004411    1.00   0.00  0.00  0.00  0.99  0.00  0.00  0.00  0.00  0.00
  WS02004411WS02004412    1.00   0.01  0.00  0.00  0.99  0.00  0.00  0.00  0.00  0.00
  WS02004412WS02004413    1.00   0.01  0.00  0.00  0.99  0.00  0.00  0.00  0.00  0.00
  WS02004413WS02003067    1.00   0.01  0.01  0.00  0.00  0.00  0.98  0.00  0.00  0.00
  WS02006109WS02006110    1.00   0.00  0.00  0.00  1.00  0.00  0.00  0.00  0.00  0.00
  WS02006110WS02006113    1.00   0.00  0.00  0.00  1.00  0.00  0.00  0.00  0.00  0.00
  WS02006111WS02006112    1.00   0.00  0.00  0.00  1.00  0.00  0.00  0.00  1.00  0.00
  WS02006112WS02006115    1.00   0.00  0.00  0.00  1.00  0.00  0.00  0.00  0.00  0.00
  WS02006113WS02006111    1.00   0.00  0.00  0.00  0.00  1.00  0.00  0.00  0.12  0.00
  WS02006115WS02006116    1.00   0.00  0.00  0.00  1.00  0.00  0.00  0.00  0.00  0.00
  WS02006116WS02004401    1.00   0.00  0.00  0.00  1.00  0.00  0.00  0.00  0.00  0.00
  WS02006228WS02006109    1.00   0.00  0.00  0.00  1.00  0.00  0.00  0.00  0.00  0.00
  WS02006229WS02006228    1.00   0.00  0.00  0.00  1.00  0.00  0.00  0.00  0.00  0.00
  WS02006230WS02006229    1.00   0.00  0.00  0.00  1.00  0.00  0.00  0.00  0.03  0.00
  WS02006231WS02006230    1.00   0.00  0.00  0.00  0.48  0.00  0.51  0.00  0.00  0.00
  WS02006232WS02006231    1.00   0.00  0.00  0.00  0.99  0.00  0.01  0.00  0.00  0.00
  WS02006234WS02006232    1.00   0.00  0.00  0.00  1.00  0.00  0.00  0.00  0.01  0.00
  WS02006235WS02006234    1.00   0.00  0.00  0.00  0.96  0.00  0.04  0.00  0.00  0.00
  WS02006238WS02006235    1.00   0.00  0.00  0.00  1.00  0.00  0.00  0.00  0.00  0.00
  WS02006239WS02006238    1.00   0.00  0.00  0.00  1.00  0.00  0.00  0.00  0.07  0.00
  WS02006240WS02006239    1.00   0.00  0.00  0.00  0.92  0.00  0.00  0.08  0.16  0.00
  WS02006242WS02006240    1.00   0.00  0.00  0.00  0.98  0.00  0.01  0.00  0.00  0.00
  WS02006243WS02006242    1.00   0.00  0.00  0.00  0.99  0.00  0.00  0.01  0.61  0.00
  WS02006245WS02006243    1.00   0.00  0.00  0.00  0.91  0.00  0.00  0.09  0.00  0.00
  WS02006247WS02006245    1.00   0.00  0.00  0.00  0.98  0.00  0.00  0.02  0.00  0.00
  WS02006248WS02006247    1.00   0.00  0.00  0.00  0.99  0.00  0.00  0.01  0.53  0.00
  WS02006249WS02006248    1.00   0.00  0.00  0.00  0.62  0.00  0.38  0.00  0.00  0.00
  WS02006251WS02006249    1.00   0.00  0.00  0.00  0.99  0.01  0.00  0.00  0.60  0.00
  WS02006252WS02006251    1.00   0.00  0.32  0.00  0.41  0.01  0.26  0.00  0.00  0.00
  WS02006256WS02006235    1.00   0.00  0.00  0.00  0.98  0.02  0.00  0.00  0.01  0.00
  WSF200WS02003060        1.00   0.00  0.04  0.00  0.26  0.70  0.00  0.00  0.65  0.00
  YS02001580YS02001583    1.00   0.13  0.34  0.00  0.53  0.00  0.00  0.00  0.64  0.00
  YS02001583YS02001586    1.00   0.29  0.13  0.00  0.57  0.00  0.01  0.00  0.65  0.00
  YS02001586YS02001590    1.00   0.11  0.00  0.00  0.64  0.02  0.00  0.23  0.26  0.00
  YS02001590YS02001593    1.00   0.11  0.00  0.00  0.39  0.00  0.50  0.00  0.00  0.00
  YS02001593YS02001596    1.00   0.11  0.00  0.00  0.42  0.00  0.00  0.47  0.02  0.00
  YS02001596YS02001600    1.00   0.11  0.00  0.00  0.45  0.01  0.00  0.43  0.02  0.00
  YS02001600YS02001601    1.00   0.11  0.00  0.00  0.89  0.00  0.00  0.00  0.55  0.00
  YS02001601YS02001602    1.00   0.11  0.00  0.00  0.89  0.00  0.00  0.00  0.00  0.00
  YS02001602YS02001605    1.00   0.11  0.00  0.00  0.89  0.00  0.00  0.00  0.00  0.00
  YS02001605YS02001607    1.00   0.11  0.00  0.00  0.89  0.00  0.00  0.00  0.00  0.00
  YS02001607YS02001610    1.00   0.11  0.00  0.00  0.89  0.00  0.00  0.00  0.00  0.00
  YS02001610YS02001613    1.00   0.11  0.00  0.00  0.89  0.00  0.00  0.00  0.00  0.00
  YS02001613YS02001616    1.00   0.11  0.00  0.00  0.89  0.00  0.00  0.00  0.00  0.00
  YS02001616YS02001619    1.00   0.11  0.00  0.00  0.89  0.00  0.00  0.00  0.00  0.00
  YS02001619YS02001622    1.00   0.11  0.00  0.00  0.89  0.00  0.00  0.00  0.31  0.00
  YS02001622YS02001625    1.00   0.11  0.00  0.00  0.89  0.00  0.00  0.00  0.01  0.00
  YS02001625YS02001629    1.00   0.11  0.01  0.00  0.43  0.00  0.45  0.00  0.00  0.00
  YS02001629YS02163301    1.00   0.11  0.00  0.00  0.89  0.00  0.00  0.00  0.00  0.00
  YS02001633YS02163601    1.00   0.00  0.01  0.00  0.99  0.00  0.00  0.00  0.12  0.00
  YS02001641YS02001644    1.00   0.00  0.00  0.00  1.00  0.00  0.00  0.00  0.00  0.00
  YS02001644YS02001647    1.00   0.00  0.11  0.00  0.89  0.00  0.00  0.00  0.00  0.00
  YS02001647YS02001649    1.00   0.00  0.11  0.00  0.61  0.28  0.00  0.00  0.55  0.00
  YS02001649YS02001757    1.00   0.00  0.00  0.00  0.66  0.33  0.00  0.00  0.51  0.00
  YS02001652YS02001649    1.00   0.00  0.00  0.00  0.99  0.01  0.00  0.00  0.68  0.00
  YS02001655YS02001652    1.00   0.00  0.00  0.00  0.45  0.01  0.00  0.54  0.09  0.00
  YS02001658YS02001655    1.00   0.00  0.11  0.00  0.49  0.40  0.00  0.00  0.71  0.00
  YS02001661YS02001658    1.00   0.11  0.00  0.00  0.26  0.64  0.00  0.00  0.80  0.00
  YS02001664YS02001661    1.00   0.11  0.00  0.00  0.47  0.43  0.00  0.00  0.87  0.00
  YS02001745YS02001748    1.00   0.00  0.00  0.00  0.00  0.00  0.00  1.00  0.00  0.00
  YS02001748YS02001751    1.00   0.00  0.00  0.00  0.51  0.49  0.00  0.00  0.89  0.00
  YS02001751YS02001754    1.00   0.00  0.00  0.00  0.37  0.04  0.00  0.58  0.18  0.00
  YS02001754YS02001757    1.00   0.00  0.00  0.00  1.00  0.00  0.00  0.00  0.74  0.00
  YS02001757CaochengTiaoxuchi    1.00   0.00  0.00  0.00  0.73  0.27  0.00  0.00  0.83  0.00
  YS02001759YS02001757    1.00   0.00  0.00  0.00  1.00  0.00  0.00  0.00  0.60  0.00
  YS02001762YS02001759    1.00   0.00  0.00  0.00  1.00  0.00  0.00  0.00  0.02  0.00
  YS02001765YS02001762    1.00   0.00  0.00  0.00  1.00  0.00  0.00  0.00  0.68  0.00
  YS02001767YS02001765    1.00   0.00  0.00  0.00  1.00  0.00  0.00  0.00  0.00  0.00
  YS02001770YS02001767    1.00   0.00  0.00  0.00  1.00  0.00  0.00  0.00  0.00  0.00
  YS02001774YS02001770    1.00   0.00  0.11  0.00  0.75  0.00  0.14  0.00  0.00  0.00
  YS02001779YS02001774    1.00   0.00  0.00  0.00  1.00  0.00  0.00  0.00  0.72  0.00
  YS02001783YS02001784    1.00   0.00  0.11  0.00  0.89  0.00  0.00  0.00  0.55  0.00
  YS02001784YS02001785    1.00   0.00  0.00  0.00  1.00  0.00  0.00  0.00  0.12  0.00
  YS02001786YS02001788    1.00   0.00  0.00  0.00  0.48  0.52  0.00  0.00  0.00  0.00
  YS02001788YS02001790    1.00   0.00  0.00  0.00  0.12  0.88  0.00  0.00  0.74  0.00
  YS02001790YS02001791    1.00   0.00  0.00  0.00  0.02  0.98  0.00  0.00  0.20  0.00
  YS02001791YS02001793    1.00   0.00  0.00  0.00  0.00  1.00  0.00  0.00  0.00  0.00
  YS02001793JiankangQianchi    1.00   0.00  0.00  0.00  1.00  0.00  0.00  0.00  1.00  0.00
  YS02001882YS02001884    1.00   0.11  0.00  0.00  0.89  0.00  0.00  0.00  0.00  0.00
  YS02001884YS02001887    1.00   0.07  0.03  0.00  0.90  0.00  0.00  0.00  0.00  0.00
  YS02001887YS02001890    1.00   0.00  0.00  0.00  0.96  0.00  0.04  0.00  0.00  0.00
  YS02001890YS02001895    1.00   0.00  0.11  0.00  0.89  0.00  0.00  0.00  0.00  0.00
  YS02001895YS02001898    1.00   0.11  0.00  0.00  0.88  0.00  0.00  0.00  0.00  0.00
  YS02001898YS02001901    1.00   0.11  0.00  0.00  0.89  0.00  0.00  0.00  0.00  0.00
  YS02001901YS02001904    1.00   0.11  0.00  0.00  0.89  0.00  0.00  0.00  0.00  0.00
  YS02001904YS02001907    1.00   0.00  0.11  0.00  0.89  0.00  0.00  0.00  0.00  0.00
  YS02001907YS02006553    1.00   0.00  0.03  0.00  0.97  0.00  0.00  0.00  0.00  0.00
  YS02001910YS02001907    1.00   0.00  0.00  0.00  0.96  0.00  0.00  0.04  0.10  0.00
  YS02001915YS02001910    1.00   0.00  0.00  0.00  0.97  0.03  0.00  0.00  0.11  0.00
  YS02001918YS02001915    1.00   0.00  0.00  0.00  0.97  0.03  0.00  0.00  0.64  0.00
  YS02001920YS02001918    1.00   0.00  0.00  0.00  1.00  0.00  0.00  0.00  0.01  0.00
  YS02001923YS02001920    1.00   0.00  0.00  0.00  1.00  0.00  0.00  0.00  0.93  0.00
  YS02001926YS02001923    1.00   0.00  0.08  0.00  0.00  0.00  0.92  0.00  0.00  0.00
  YS02001929YS02001926    1.00   0.00  0.11  0.00  0.89  0.00  0.00  0.00  0.87  0.00
  YS02006553YS02006556    1.00   0.01  0.00  0.00  0.99  0.00  0.00  0.00  0.03  0.00
  YS02006556YS02006558    1.00   0.00  0.00  0.00  1.00  0.00  0.00  0.00  0.00  0.00
  YS02006558YS02006561    1.00   0.11  0.00  0.00  0.00  0.89  0.00  0.00  0.12  0.00
  YS02006561YS02001783    1.00   0.11  0.00  0.00  0.23  0.66  0.00  0.00  0.61  0.00
  YS02163301YS02001633    1.00   0.00  0.11  0.00  0.89  0.00  0.00  0.00  0.00  0.00
  YS02163601YS02164001    1.00   0.00  0.08  0.00  0.92  0.00  0.00  0.00  0.00  0.00
  YS02164001YS02001641    1.00   0.01  0.08  0.00  0.92  0.00  0.00  0.00  0.05  0.00
  
  
  *************************
  Conduit Surcharge Summary
  *************************
  
  ----------------------------------------------------------------------------
                                                           Hours        Hours 
                         --------- Hours Full --------   Above Full   Capacity
  Conduit                Both Ends  Upstream  Dnstream   Normal Flow   Limited
  ----------------------------------------------------------------------------
  WS02003072WS02003073        0.01      0.01      0.01      2.17         0.01
  WS02004401WS02004402        0.01      0.01      0.01      0.01         0.01
  WS02004402WS02004403        0.01      0.01      0.01      0.01         0.01
  WS02004404WS02004405        0.01      0.01      0.01      3.04         0.01
  WS02004405WS02004406        0.01      0.01      0.01      1.93         0.01
  WS02006109WS02006110        1.82      1.83      2.31      1.88         0.01
  WS02006110WS02006113        0.01      0.01      2.31      0.01         0.01
  WS02006111WS02006112        0.01      0.01      2.40      0.01         0.01
  WS02006112WS02006115        0.01      0.01      2.00      0.01         0.01
  WS02006113WS02006111        0.01      0.01      0.01      0.01         0.01
  WS02006115WS02006116        0.01      0.01      0.01      0.01         0.01
  WS02006116WS02004401        0.01      0.01      0.01      0.01         0.01
  WS02006228WS02006109        2.29      2.31      2.29      2.56         2.29
  WS02006229WS02006228        2.29      2.29      2.29      2.43         2.28
  WS02006230WS02006229        2.34      2.39      2.34      3.56         2.34
  WS02006231WS02006230        1.80      1.80      2.10      3.08         0.01
  WS02006232WS02006231        2.05      2.05      2.32      2.09         0.01
  WS02006234WS02006232        2.29      2.29      2.32      2.01         2.03
  WS02006235WS02006234        2.24      2.25      2.29      2.85         0.02
  WS02006238WS02006235        2.30      2.30      2.32      0.01         0.01
  WS02006239WS02006238        2.30      2.31      2.31      2.25         2.06
  WS02006240WS02006239        2.29      2.29      2.29      2.22         2.04
  WS02006242WS02006240        2.29      2.29      2.33      2.44         0.01
  WS02006243WS02006242        2.29      2.29      2.30      0.01         0.06
  WS02006245WS02006243        2.28      2.28      2.28      0.41         0.35
  WS02006247WS02006245        2.28      2.28      2.28      2.57         2.26
  WS02006248WS02006247        2.27      2.27      2.28      0.01         0.08
  WS02006249WS02006248        2.25      2.26      2.27      2.53         0.01
  WS02006251WS02006249        2.26      2.27      2.27      2.30         2.08
  WS02006252WS02006251        2.52      2.54      2.53      2.57         0.01
  WS02006256WS02006235        2.73      2.92      6.59      2.51         0.06
  YS02001580YS02001583        0.76      0.76      1.37      0.01         0.01
  YS02001583YS02001586        0.86      0.86      1.48      0.01         0.01
  YS02001586YS02001590        1.50      1.50      1.64      0.01         0.01
  YS02001590YS02001593        1.64      1.64      1.68      1.62         0.01
  YS02001593YS02001596        1.67      1.67      1.83      0.01         0.01
  YS02001596YS02001600        1.91      1.91      2.01      0.01         0.01
  YS02001600YS02001601        2.03      2.03      2.16      0.01         0.01
  YS02001601YS02001602        2.11      2.11      2.18      2.03         0.01
  YS02001602YS02001605        2.09      2.09      2.11      2.62         0.01
  YS02001605YS02001607        2.06      2.09      2.06      2.14         2.06
  YS02001607YS02001610        1.51      1.51      1.56      0.01         0.01
  YS02001610YS02001613        1.50      1.50      1.56      0.01         0.01
  YS02001613YS02001616        1.40      1.40      1.50      0.01         0.01
  YS02001616YS02001619        1.39      1.39      1.40      0.01         0.01
  YS02001619YS02001622        1.39      1.39      1.39      1.68         1.38
  YS02001622YS02001625        1.39      1.39      1.71      0.01         0.01
  YS02001625YS02001629        0.34      0.34      1.71      0.01         0.01
  YS02001629YS02163301        1.68      1.68      1.69      1.43         1.44
  YS02001633YS02163601        1.72      1.72      1.77      1.53         1.53
  YS02001641YS02001644        1.42      1.54      1.42      2.19         1.42
  YS02001644YS02001647        0.01      0.01      1.42      0.01         0.01
  YS02001649YS02001757        0.01      0.01      0.01      0.39         0.01
  YS02001757CaochengTiaoxuchi        0.01      0.01      0.64      0.23         0.01
  YS02001770YS02001767        0.01      0.01      0.01      0.63         0.01
  YS02001783YS02001784        0.01      0.02      0.01      1.07         0.01
  YS02001784YS02001785        0.01      0.01      0.01      1.91         0.01
  YS02001786YS02001788        0.01      0.01      0.01      1.69         0.01
  YS02001790YS02001791        0.01      0.01      0.01      0.01         0.01
  YS02001793JiankangQianchi        0.01      0.01      2.66      0.01         0.01
  YS02001887YS02001890        0.03      0.03      0.17      0.01         0.01
  YS02001890YS02001895        0.01      0.01      0.29      0.01         0.01
  YS02001904YS02001907        0.01      0.01      1.66      0.01         0.01
  YS02001907YS02006553        1.93      1.93      1.95      0.01         0.01
  YS02001910YS02001907        0.29      0.29      1.62      0.01         0.01
  YS02001915YS02001910        0.01      0.01      0.29      0.01         0.01
  YS02006553YS02006556        0.85      0.85      1.65      0.01         0.01
  YS02006556YS02006558        1.47      1.47      1.67      0.01         0.01
  YS02006558YS02006561        0.01      0.73      0.01      1.81         0.01
  YS02006561YS02001783        0.01      0.01      0.02      0.01         0.01
  YS02163301YS02001633        1.69      1.69      1.76      0.01         0.01
  YS02163601YS02164001        1.56      1.56      1.77      0.85         0.01
  YS02164001YS02001641        1.54      1.56      1.54      1.88         1.54
  
  
  ***************
  Pumping Summary
  ***************
  
  ---------------------------------------------------------------------------------------------------------
                                                  Min       Avg       Max     Total     Power    % Time Off
                        Percent   Number of      Flow      Flow      Flow    Volume     Usage    Pump Curve
  Pump                 Utilized   Start-Ups       LPS       LPS       LPS  10^6 ltr     Kw-hr    Low   High
  ---------------------------------------------------------------------------------------------------------
  CC-R1                   31.70         131      0.00    683.00    683.00     6.235    106.57    0.0   74.8
  CC-R2                   31.70         131      0.00    683.00    683.00     6.235    106.57    0.0   74.8
  CC-S1                   31.70         131      0.00    200.00    200.00     1.826     13.06    0.0    0.0
  CC-S2                   31.70         131      0.00    200.00    200.00     1.826     13.06    0.0    0.0
  JK-R1                    5.14         405      0.00   1000.00   1000.00     1.480      8.18    0.0    0.0
  JK-R2                    5.14         405      0.00   1000.00   1000.00     1.480      8.18    0.0    0.0
  JK-S                    30.22         234      0.00    300.00    300.00     2.611     52.00    0.0    0.0
  

  Analysis begun on:  Wed Aug  9 15:13:00 2023
  Analysis ended on:  Wed Aug  9 15:14:42 2023
  Total elapsed time: 00:01:42