
  OWA STORM WATER MANAGEMENT MODEL - VERSION v5.1.14 (OWA 2022-07-31)
  --------------------------------------------------------------

  WARNING 04: minimum elevation drop used for Conduit WS02004404WS02004405
  WARNING 03: negative offset ignored for Link YS02001904YS02001907
  
  *********************************************************
  NOTE: The summary statistics displayed in this report are
  based on results found at every computational time step,  
  not just on results from each reporting time step.
  *********************************************************
  
  ****************
  Analysis Options
  ****************
  Flow Units ............... LPS
  Process Models:
    Rainfall/Runoff ........ YES
    RDII ................... NO
    Snowmelt ............... NO
    Groundwater ............ NO
    Flow Routing ........... YES
    Ponding Allowed ........ NO
    Water Quality .......... NO
  Infiltration Method ...... HORTON
  Flow Routing Method ...... DYNWAVE
  Surcharge Method ......... EXTRAN
  Starting Date ............ 08/28/2015 08:00:00
  Ending Date .............. 08/28/2015 16:00:00
  Antecedent Dry Days ...... 8.0
  Report Time Step ......... 00:01:00
  Wet Time Step ............ 00:01:00
  Dry Time Step ............ 00:01:00
  Routing Time Step ........ 30.00 sec
  Variable Time Step ....... YES
  Maximum Trials ........... 8
  Number of Threads ........ 4
  Head Tolerance ........... 0.001500 m
  
  
  **************************        Volume         Depth
  Runoff Quantity Continuity     hectare-m            mm
  **************************     ---------       -------
  Initial LID Storage ......         0.049         1.488
  Total Precipitation ......         3.989       120.274
  Evaporation Loss .........         0.000         0.000
  Infiltration Loss ........         0.082         2.465
  Surface Runoff ...........         3.041        91.683
  Final Storage ............         0.917        27.633
  Continuity Error (%) .....        -0.016
  
  
  **************************        Volume        Volume
  Flow Routing Continuity        hectare-m      10^6 ltr
  **************************     ---------     ---------
  Dry Weather Inflow .......         0.025         0.251
  Wet Weather Inflow .......         3.040        30.401
  Groundwater Inflow .......         0.000         0.000
  RDII Inflow ..............         0.000         0.000
  External Inflow ..........         0.083         0.834
  External Outflow .........         2.407        24.072
  Flooding Loss ............         0.847         8.473
  Evaporation Loss .........         0.000         0.000
  Exfiltration Loss ........         0.000         0.000
  Initial Stored Volume ....         0.243         2.431
  Final Stored Volume ......         0.182         1.819
  Continuity Error (%) .....        -1.321
  
  
  *************************
  Highest Continuity Errors
  *************************
  Node YS02001583 (-7.38%)
  Node YS02001884 (4.73%)
  Node WS02006256 (-2.55%)
  Node YS02001658 (-1.47%)
  Node YS02001774 (1.18%)
  
  
  ***************************
  Time-Step Critical Elements
  ***************************
  Link WS02006238WS02006235 (28.03%)
  Link WS02004404WS02004405 (25.14%)
  Link YS02001791YS02001793 (16.85%)
  Link WS02003066WSF200 (6.69%)
  Link YS02006556YS02006558 (4.32%)
  
  
  ********************************
  Highest Flow Instability Indexes
  ********************************
  Link WS02006238WS02006235 (54)
  Link WS02006235WS02006234 (47)
  Link WS02006256WS02006235 (44)
  Link WS02006252WS02006251 (38)
  Link WS02006239WS02006238 (38)
  
  
  *************************
  Routing Time Step Summary
  *************************
  Minimum Time Step           :     0.01 sec
  Average Time Step           :     2.94 sec
  Maximum Time Step           :    30.00 sec
  Percent in Steady State     :     0.00
  Average Iterations per Step :     5.38
  Percent Not Converging      :    42.98
  
  
  ***************************
  Subcatchment Runoff Summary
  ***************************
  
  ------------------------------------------------------------------------------------------------------------------------------
                            Total      Total      Total      Total     Imperv       Perv      Total       Total     Peak  Runoff
                           Precip      Runon       Evap      Infil     Runoff     Runoff     Runoff      Runoff   Runoff   Coeff
  Subcatchment                 mm         mm         mm         mm         mm         mm         mm    10^6 ltr      LPS
  ------------------------------------------------------------------------------------------------------------------------------
  sub60                    120.27       0.00       0.00       1.46      80.77       9.68      90.45        1.19   281.86   0.752
  sub61                    120.27       0.00       0.00       2.25      80.70      14.46      95.16        1.75   415.57   0.791
  sub62                    120.27       0.00       0.00       0.99      86.04       6.57      92.61        2.54   599.27   0.770
  sub63                    120.27       0.00       0.00       4.13      69.12      24.42      93.54        2.12   505.23   0.778
  sub64                    120.27       0.00       0.00       1.98      78.72      12.07      90.79        2.18   515.82   0.755
  sub65                    120.27       0.00       0.00       1.82      84.97      11.03      96.00        2.64   623.05   0.798
  sub66                    120.27       0.00       0.00       4.78      66.88      22.87      89.75        4.19   933.89   0.746
  sub67                    120.27       0.00       0.00       0.98      88.20       6.78      94.97        1.77   417.86   0.790
  sub68                    120.27       0.00       0.00       1.73      77.90      11.10      88.99        2.45   581.32   0.740
  sub69                    120.27       0.00       0.00       1.61      80.93      12.68      93.62        3.47   806.95   0.778
  sub70                    120.27       0.00       0.00       5.32      64.88      28.16      93.04        2.69   567.76   0.774
  sub71                    120.27       0.00       0.00       0.92      78.17       5.96      84.13        2.20   518.48   0.699
  sub72                    120.27       0.00       0.00       0.88      84.47       5.56      90.02        1.24   289.44   0.748
  

  ***********************
  LID Performance Summary
  ***********************

  --------------------------------------------------------------------------------------------------------------------
                                         Total      Evap     Infil   Surface    Drain    Initial     Final  Continuity
                                        Inflow      Loss      Loss   Outflow   Outflow   Storage   Storage       Error
  Subcatchment      LID Control             mm        mm        mm        mm        mm        mm        mm           %
  --------------------------------------------------------------------------------------------------------------------
  sub60             GreenRoof           120.27      0.00      0.00      0.00      0.00      7.05    127.32       -0.00
  sub61             GreenRoof           120.27      0.00      0.00      0.00      0.00      7.05    127.32       -0.00
  sub62             GreenRoof           120.27      0.00      0.00      0.00      0.00      7.05    127.32       -0.00
  sub63             GreenRoof           120.27      0.00      0.00      0.00      0.00      7.05    127.32       -0.00
  sub64             GreenRoof           120.27      0.00      0.00      0.00      0.00      7.05    127.32       -0.00
  sub65             GreenRoof           120.27      0.00      0.00      0.00      0.00      7.05    127.32       -0.00
  sub66             GreenRoof           120.27      0.00      0.00      0.00      0.00      7.05    127.32       -0.00
  sub67             GreenRoof           120.27      0.00      0.00      0.00      0.00      7.05    127.32       -0.00
  sub68             GreenRoof           120.27      0.00      0.00      0.00      0.00      7.05    127.32       -0.00
  sub69             GreenRoof           120.27      0.00      0.00      0.00      0.00      7.05    127.32       -0.00
  sub70             GreenRoof           120.27      0.00      0.00      0.00      0.00      7.05    127.32       -0.00
  sub71             GreenRoof           120.27      0.00      0.00      0.00      0.00      7.05    127.32       -0.00
  sub72             GreenRoof           120.27      0.00      0.00      0.00      0.00      7.05    127.32       -0.00
  
  ******************
  Node Depth Summary
  ******************
  
  ---------------------------------------------------------------------------------
                                 Average  Maximum  Maximum  Time of Max    Reported
                                   Depth    Depth      HGL   Occurrence   Max Depth
  Node                 Type       Meters   Meters   Meters  days hr:min      Meters
  ---------------------------------------------------------------------------------
  WS02003060           JUNCTION     0.25     0.39     5.32     0  01:46        0.39
  WS02003066           JUNCTION     0.20     0.30     5.85     0  01:45        0.30
  WS02003067           JUNCTION     0.52     0.70     6.02     0  01:45        0.70
  WS02003069           JUNCTION     0.28     0.43     5.02     0  01:46        0.43
  WS02003072           JUNCTION     0.34     0.50     4.87     0  01:47        0.50
  WS02003073           JUNCTION     0.19     0.30     4.36     0  01:48        0.30
  WS02004401           JUNCTION     0.64     0.88     6.88     0  02:20        0.88
  WS02004402           JUNCTION     0.68     0.91     6.87     0  02:12        0.91
  WS02004403           JUNCTION     0.70     0.93     6.86     0  02:31        0.92
  WS02004404           JUNCTION     0.77     1.05     6.90     0  02:31        1.04
  WS02004405           JUNCTION     0.76     0.97     6.82     0  02:31        0.97
  WS02004406           JUNCTION     0.77     0.96     6.79     0  01:43        0.96
  WS02004407           JUNCTION     0.19     0.30     6.61     0  01:43        0.30
  WS02004409           JUNCTION     0.43     0.67     6.44     0  01:43        0.67
  WS02004410           JUNCTION     0.45     0.68     6.40     0  01:44        0.68
  WS02004411           JUNCTION     0.47     0.69     6.37     0  01:44        0.69
  WS02004412           JUNCTION     0.49     0.70     6.34     0  01:44        0.70
  WS02004413           JUNCTION     0.65     0.86     6.33     0  01:45        0.86
  WS02006109           JUNCTION     0.70     1.12     7.73     0  01:15        0.98
  WS02006110           JUNCTION     0.69     1.14     7.72     0  01:15        0.93
  WS02006111           JUNCTION     0.19     0.90     7.60     0  00:00        0.40
  WS02006112           JUNCTION     0.80     2.68     8.56     0  00:00        1.14
  WS02006113           JUNCTION     0.29     1.40     8.29     0  00:00        0.45
  WS02006115           JUNCTION     0.53     1.65     7.79     0  00:00        0.86
  WS02006116           JUNCTION     0.61     1.06     7.10     0  00:00        0.86
  WS02006228           JUNCTION     0.70     1.12     7.77     0  01:15        1.02
  WS02006229           JUNCTION     0.68     1.13     7.83     0  01:15        1.02
  WS02006230           JUNCTION     0.70     1.28     8.02     0  01:15        1.10
  WS02006231           JUNCTION     0.50     1.15     8.27     0  03:12        1.03
  WS02006232           JUNCTION     0.64     1.42     8.46     0  03:13        1.42
  WS02006234           JUNCTION     0.59     1.61     8.77     0  03:13        1.61
  WS02006235           JUNCTION     0.65     1.59     8.76     0  03:13        1.59
  WS02006238           JUNCTION     0.67     1.64     8.78     0  03:12        1.60
  WS02006239           JUNCTION     0.64     1.63     8.83     0  03:12        1.52
  WS02006240           JUNCTION     0.60     1.59     8.88     0  03:12        1.44
  WS02006242           JUNCTION     0.67     1.55     8.82     0  03:12        1.53
  WS02006243           JUNCTION     0.59     1.46     8.88     0  02:19        1.46
  WS02006245           JUNCTION     0.59     1.37     8.86     0  02:19        1.37
  WS02006247           JUNCTION     0.61     1.47     8.97     0  02:19        1.47
  WS02006248           JUNCTION     0.57     1.10     8.69     0  01:15        1.10
  WS02006249           JUNCTION     0.60     1.09     8.69     0  01:14        1.09
  WS02006251           JUNCTION     0.60     1.42     9.09     0  01:14        1.15
  WS02006252           JUNCTION     0.38     1.50     9.74     0  01:09        1.50
  WS02006256           JUNCTION     1.36     2.35     9.28     0  00:00        2.35
  WSF200               JUNCTION     0.18     0.29     5.53     0  01:45        0.29
  YS02001580           JUNCTION     0.24     1.05     9.59     0  01:10        0.78
  YS02001583           JUNCTION     0.28     1.14     9.64     0  01:10        0.82
  YS02001586           JUNCTION     0.41     1.13     9.30     0  01:10        1.13
  YS02001590           JUNCTION     0.54     1.39     9.25     0  01:10        1.38
  YS02001593           JUNCTION     0.48     1.46     9.32     0  02:19        1.46
  YS02001596           JUNCTION     0.65     1.80     9.22     0  01:07        1.80
  YS02001600           JUNCTION     0.75     1.87     9.00     0  02:19        1.86
  YS02001601           JUNCTION     0.93     2.06     8.90     0  01:09        2.06
  YS02001602           JUNCTION     0.82     1.87     8.77     0  01:11        1.87
  YS02001605           JUNCTION     0.76     1.78     8.68     0  01:11        1.78
  YS02001607           JUNCTION     0.72     1.68     8.53     0  01:11        1.68
  YS02001610           JUNCTION     0.76     1.68     8.48     0  01:11        1.68
  YS02001613           JUNCTION     0.72     1.70     8.54     0  01:11        1.70
  YS02001616           JUNCTION     0.65     1.61     8.52     0  01:11        1.61
  YS02001619           JUNCTION     0.63     1.61     8.54     0  02:19        1.61
  YS02001622           JUNCTION     0.62     1.62     8.52     0  02:19        1.62
  YS02001625           JUNCTION     0.87     1.78     8.38     0  01:11        1.78
  YS02001629           JUNCTION     0.78     1.85     8.40     0  01:11        1.85
  YS02001633           JUNCTION     0.85     2.08     8.53     0  02:23        2.08
  YS02001641           JUNCTION     0.80     2.00     8.44     0  02:14        1.96
  YS02001644           JUNCTION     0.79     1.92     8.35     0  01:21        1.92
  YS02001647           JUNCTION     0.58     1.80     8.41     0  02:14        1.67
  YS02001649           JUNCTION     0.65     2.02     8.41     0  02:14        1.78
  YS02001652           JUNCTION     0.52     1.82     8.42     0  01:27        1.66
  YS02001655           JUNCTION     0.41     1.94     8.79     0  02:27        1.84
  YS02001658           JUNCTION     0.29     2.01     9.16     0  01:27        2.01
  YS02001661           JUNCTION     0.23     0.73     8.13     0  01:36        0.71
  YS02001664           JUNCTION     0.09     0.27     8.20     0  01:28        0.27
  YS02001745           JUNCTION     0.11     0.56     8.07     0  01:37        0.55
  YS02001748           JUNCTION     0.27     0.98     8.06     0  01:52        0.93
  YS02001751           JUNCTION     0.35     1.54     8.42     0  01:48        1.31
  YS02001754           JUNCTION     0.47     1.56     8.16     0  01:55        1.44
  YS02001757           JUNCTION     0.66     1.82     8.08     0  01:40        1.77
  YS02001759           JUNCTION     0.60     1.73     8.10     0  01:40        1.73
  YS02001762           JUNCTION     0.59     1.72     8.12     0  01:36        1.72
  YS02001765           JUNCTION     0.57     1.82     8.27     0  02:19        1.82
  YS02001767           JUNCTION     0.56     2.03     8.52     0  02:19        2.03
  YS02001770           JUNCTION     0.56     1.95     8.44     0  02:19        1.95
  YS02001774           JUNCTION     0.63     2.05     8.47     0  02:19        2.05
  YS02001779           JUNCTION     0.45     1.65     8.34     0  02:11        1.51
  YS02001783           JUNCTION     0.40     1.25     7.39     0  01:14        1.21
  YS02001784           JUNCTION     0.40     1.13     7.20     0  01:14        1.11
  YS02001786           JUNCTION     0.33     0.88     6.91     0  01:14        0.86
  YS02001788           JUNCTION     0.24     0.62     6.60     0  01:16        0.62
  YS02001790           JUNCTION     0.28     0.72     6.37     0  01:29        0.72
  YS02001791           JUNCTION     0.17     0.44     5.91     0  01:36        0.44
  YS02001793           JUNCTION     0.09     0.21     5.04     0  01:37        0.21
  YS02001882           JUNCTION     0.50     1.63     8.35     0  01:14        1.60
  YS02001884           JUNCTION     0.59     1.73     8.34     0  01:14        1.71
  YS02001887           JUNCTION     0.67     1.80     8.34     0  01:14        1.77
  YS02001890           JUNCTION     0.70     1.81     8.32     0  01:14        1.80
  YS02001895           JUNCTION     0.47     1.56     8.31     0  01:14        1.55
  YS02001898           JUNCTION     0.48     1.56     8.30     0  01:14        1.55
  YS02001901           JUNCTION     0.59     1.68     8.28     0  01:14        1.67
  YS02001904           JUNCTION     0.57     1.64     8.27     0  01:17        1.64
  YS02001907           JUNCTION     0.88     1.96     8.25     0  01:14        1.96
  YS02001910           JUNCTION     0.69     1.98     8.49     0  01:15        1.81
  YS02001915           JUNCTION     0.50     1.93     8.65     0  01:15        1.66
  YS02001918           JUNCTION     0.32     1.81     8.88     0  01:14        1.40
  YS02001920           JUNCTION     0.39     2.08     9.08     0  01:15        1.49
  YS02001923           JUNCTION     0.25     1.98     9.24     0  01:15        1.27
  YS02001926           JUNCTION     0.25     1.88     9.33     0  01:15        1.02
  YS02001929           JUNCTION     0.15     1.72     9.41     0  01:15        0.90
  YS02006553           JUNCTION     0.88     1.98     8.26     0  01:18        1.98
  YS02006556           JUNCTION     0.85     1.93     8.24     0  01:14        1.93
  YS02006558           JUNCTION     0.89     1.97     8.24     0  01:18        1.97
  YS02006561           JUNCTION     0.26     0.91     7.57     0  01:14        0.87
  YS02163301           JUNCTION     0.80     1.97     8.48     0  02:23        1.97
  YS02163601           JUNCTION     0.87     2.08     8.48     0  02:14        2.08
  YS02164001           JUNCTION     0.80     2.02     8.48     0  02:14        2.01
  CC-1                 OUTFALL      0.00     0.00     0.00     0  00:00        0.00
  CC-2                 OUTFALL      0.00     0.00     0.00     0  00:00        0.00
  JK-1                 OUTFALL      0.00     0.00     0.00     0  00:00        0.00
  JK-2                 OUTFALL      0.00     0.00     0.00     0  00:00        0.00
  WSC                  OUTFALL      0.19     0.30     0.97     0  01:48        0.30
  CC-storage           STORAGE      0.95     1.78     7.28     0  02:31        1.78
  JK-storage           STORAGE      1.09     3.00     3.80     0  00:00        1.99
  
  
  *******************
  Node Inflow Summary
  *******************
  
  -------------------------------------------------------------------------------------------------
                                  Maximum  Maximum                  Lateral       Total        Flow
                                  Lateral    Total  Time of Max      Inflow      Inflow     Balance
                                   Inflow   Inflow   Occurrence      Volume      Volume       Error
  Node                 Type           LPS      LPS  days hr:min    10^6 ltr    10^6 ltr     Percent
  -------------------------------------------------------------------------------------------------
  WS02003060           JUNCTION     16.53   558.65     0  01:45       0.476        6.14       0.040
  WS02003066           JUNCTION      0.00   541.66     0  01:45           0        5.67       0.026
  WS02003067           JUNCTION      0.00   541.53     0  01:45           0        5.67       0.075
  WS02003069           JUNCTION      0.32   558.65     0  01:46     0.00922        6.15       0.069
  WS02003072           JUNCTION      0.00   558.15     0  01:46           0        6.14       0.123
  WS02003073           JUNCTION      1.82   559.75     0  01:47      0.0524        6.19       0.095
  WS02004401           JUNCTION      0.00  1697.33     0  00:00           0        5.76       0.200
  WS02004402           JUNCTION      0.00  1210.03     0  00:01           0        5.75       0.195
  WS02004403           JUNCTION      0.00   817.89     0  00:01           0        5.74       0.185
  WS02004404           JUNCTION      0.16   816.21     0  00:01     0.00467        5.73      -0.078
  WS02004405           JUNCTION      0.04   787.87     0  00:01      0.0011        5.74       0.143
  WS02004406           JUNCTION      0.00   736.08     0  00:02           0        5.73       0.386
  WS02004407           JUNCTION      0.00   543.72     0  01:43           0        5.71       0.022
  WS02004409           JUNCTION      0.00   542.94     0  01:43           0        5.71       0.054
  WS02004410           JUNCTION      0.00   542.63     0  01:43           0         5.7       0.086
  WS02004411           JUNCTION      0.00   542.24     0  01:44           0         5.7       0.105
  WS02004412           JUNCTION      0.00   542.05     0  01:44           0        5.69       0.136
  WS02004413           JUNCTION      0.00   541.93     0  01:44           0        5.68       0.245
  WS02006109           JUNCTION      1.23  1308.01     0  00:00      0.0354        5.69       0.131
  WS02006110           JUNCTION      0.00   553.47     0  01:15           0        5.66      -0.633
  WS02006111           JUNCTION      0.00  1176.04     0  00:00           0        5.69      -0.672
  WS02006112           JUNCTION      0.00  2307.30     0  00:00           0        5.73       0.008
  WS02006113           JUNCTION      0.00   570.65     0  01:15           0        5.65      -0.874
  WS02006115           JUNCTION      0.00   898.70     0  00:00           0         5.7      -0.558
  WS02006116           JUNCTION      0.00  1144.85     0  00:01           0        5.74      -0.490
  WS02006228           JUNCTION      0.00   551.37     0  01:15           0        5.63       0.059
  WS02006229           JUNCTION      0.00   550.89     0  01:15           0        5.62       0.142
  WS02006230           JUNCTION     10.28   578.27     0  03:12       0.296         5.6       0.035
  WS02006231           JUNCTION      0.00   561.94     0  01:15           0         5.3       0.004
  WS02006232           JUNCTION      0.00   561.82     0  01:15           0         5.3       0.147
  WS02006234           JUNCTION      0.00   562.60     0  01:15           0        5.29      -0.282
  WS02006235           JUNCTION      0.00   563.39     0  01:15           0        5.43       0.265
  WS02006238           JUNCTION      0.00   427.84     0  03:19           0        3.72      -0.062
  WS02006239           JUNCTION      0.00   422.56     0  03:21           0        3.61      -0.022
  WS02006240           JUNCTION      0.00   416.76     0  03:21           0        3.57      -0.094
  WS02006242           JUNCTION      0.00   418.06     0  03:21           0        3.57      -0.080
  WS02006243           JUNCTION      0.00   419.89     0  03:21           0        3.57      -0.068
  WS02006245           JUNCTION      0.00   419.35     0  03:21           0        3.58       0.310
  WS02006247           JUNCTION      0.00   420.23     0  03:21           0        3.58       0.004
  WS02006248           JUNCTION      0.00   420.61     0  03:21           0        3.58       0.060
  WS02006249           JUNCTION      0.00   793.83     0  00:00           0        4.09       0.192
  WS02006251           JUNCTION      0.08   453.22     0  00:00     0.00222        4.08      -0.254
  WS02006252           JUNCTION      0.00   400.00     0  00:00           0        4.04      -1.108
  WS02006256           JUNCTION      0.00   300.00     0  00:00           0        2.58      -2.484
  WSF200               JUNCTION      0.00   541.75     0  01:45           0        5.66       0.009
  YS02001580           JUNCTION      0.00   122.44     0  01:09           0     0.00446      -5.133
  YS02001583           JUNCTION      0.00   198.54     0  01:10           0      0.0154      -6.873
  YS02001586           JUNCTION    567.76   567.84     0  01:34        2.69         2.7       0.078
  YS02001590           JUNCTION      0.00   318.20     0  01:39           0        2.12      -0.038
  YS02001593           JUNCTION      0.00   318.11     0  01:22           0        2.13       0.009
  YS02001596           JUNCTION      0.00   317.99     0  01:51           0        2.12      -0.052
  YS02001600           JUNCTION      0.00   318.15     0  01:43           0        2.13       0.034
  YS02001601           JUNCTION    806.95  1124.60     0  01:31        3.46        5.59       0.009
  YS02001602           JUNCTION      0.00   598.16     0  01:10           0        3.22       0.005
  YS02001605           JUNCTION      0.00   597.95     0  01:10           0        2.94       0.009
  YS02001607           JUNCTION      0.00   598.06     0  01:10           0        2.94       0.045
  YS02001610           JUNCTION      0.00   574.70     0  01:10           0        3.03       0.070
  YS02001613           JUNCTION      0.00   549.80     0  01:10           0        2.08       0.059
  YS02001616           JUNCTION      0.00   505.37     0  01:10           0        2.09       0.015
  YS02001619           JUNCTION    933.89   933.89     0  01:34        4.18        6.17      -0.010
  YS02001622           JUNCTION      0.00   926.42     0  01:13           0        6.07      -0.004
  YS02001625           JUNCTION      0.00   925.59     0  01:13           0        6.07       0.190
  YS02001629           JUNCTION      0.00   925.42     0  01:13           0        4.48      -0.037
  YS02001633           JUNCTION    623.25  1388.07     0  01:13        2.65        7.14       0.043
  YS02001641           JUNCTION      0.00  1384.48     0  01:13           0        7.14       0.043
  YS02001644           JUNCTION    515.86  1792.05     0  01:13        2.18        9.31       0.032
  YS02001647           JUNCTION      0.00  1792.19     0  01:13           0        9.29      -0.006
  YS02001649           JUNCTION      0.00  2149.00     0  01:12           0        11.4       0.009
  YS02001652           JUNCTION      0.00   585.33     0  01:29           0        2.16       0.044
  YS02001655           JUNCTION      0.15   632.72     0  01:29     0.00443        2.16      -0.004
  YS02001658           JUNCTION      0.00   869.95     0  01:29           0        2.17      -1.447
  YS02001661           JUNCTION      0.00   512.05     0  01:28           0        2.18       0.121
  YS02001664           JUNCTION    505.23   505.23     0  01:32        2.12        2.12      -0.014
  YS02001745           JUNCTION    281.86   310.43     0  01:37        1.19        1.21       0.269
  YS02001748           JUNCTION      0.04   555.84     0  01:37      0.0013         1.2      -0.369
  YS02001751           JUNCTION      0.01   438.72     0  01:22    0.000317        1.19      -0.392
  YS02001754           JUNCTION      0.26   345.10     0  01:23     0.00749         1.2      -0.108
  YS02001757           JUNCTION      0.00  3185.20     0  01:28           0          17       0.040
  YS02001759           JUNCTION    415.61  1045.37     0  01:26        1.75        4.31      -0.022
  YS02001762           JUNCTION      0.00   627.57     0  01:15           0        2.56      -0.013
  YS02001765           JUNCTION      0.00   621.58     0  01:26           0        2.56       0.015
  YS02001767           JUNCTION      0.54   620.97     0  01:15      0.0154        2.56       0.008
  YS02001770           JUNCTION    599.42   623.89     0  01:15        2.54         2.6      -0.024
  YS02001774           JUNCTION      0.00   156.96     0  01:14           0      0.0832       1.193
  YS02001779           JUNCTION      0.01   163.28     0  01:14    0.000144      0.0267      -1.746
  YS02001783           JUNCTION      0.00  1148.50     0  01:25           0        6.51       0.005
  YS02001784           JUNCTION      1.06  1150.05     0  01:25      0.0305        6.54       0.008
  YS02001786           JUNCTION      0.06  1149.70     0  01:25     0.00162        6.54       0.011
  YS02001788           JUNCTION      0.07  1149.84     0  01:25     0.00204        6.55       0.005
  YS02001790           JUNCTION      0.15  1165.86     0  01:28     0.00446        6.55       0.018
  YS02001791           JUNCTION      0.00  1281.18     0  01:33           0        6.55      -0.033
  YS02001793           JUNCTION      0.00  1238.52     0  01:37           0        6.55       0.004
  YS02001882           JUNCTION      0.00    95.16     0  01:09           0       0.015       5.232
  YS02001884           JUNCTION      0.00   175.96     0  01:09           0      0.0524       4.966
  YS02001887           JUNCTION    418.31   419.44     0  01:30        1.78        1.81       0.229
  YS02001890           JUNCTION      0.00   419.86     0  01:30           0        1.77       0.293
  YS02001895           JUNCTION      0.00   419.41     0  01:30           0        1.77       0.178
  YS02001898           JUNCTION      0.00   420.07     0  01:30           0        1.76      -0.049
  YS02001901           JUNCTION      0.00   420.35     0  01:30           0        1.77       0.197
  YS02001904           JUNCTION      0.00   420.07     0  01:18           0        1.79       0.147
  YS02001907           JUNCTION      0.00  1321.66     0  01:15           0        5.31       0.339
  YS02001910           JUNCTION      0.00   913.08     0  01:15           0        3.52       0.192
  YS02001915           JUNCTION    518.50   912.29     0  01:15         2.2        3.56       0.043
  YS02001918           JUNCTION      0.00   449.63     0  01:15           0        1.38       0.017
  YS02001920           JUNCTION      2.87   448.98     0  01:15      0.0827        1.36       0.065
  YS02001923           JUNCTION      0.04   404.66     0  01:15     0.00109        1.26      -0.064
  YS02001926           JUNCTION      0.05   504.20     0  01:14      0.0015        1.25       0.017
  YS02001929           JUNCTION    289.44   312.22     0  01:14        1.24        1.24      -0.014
  YS02006553           JUNCTION      0.00   780.77     0  02:00           0        4.12       0.291
  YS02006556           JUNCTION      0.00   780.27     0  02:00           0        4.14       0.188
  YS02006558           JUNCTION    582.20  1149.66     0  01:28        2.47        6.57       0.060
  YS02006561           JUNCTION      0.00  1148.80     0  01:26           0        6.51      -0.006
  YS02163301           JUNCTION      0.00   924.99     0  01:13           0         4.5       0.034
  YS02163601           JUNCTION      0.11  1387.20     0  01:13     0.00317        7.13       0.066
  YS02164001           JUNCTION      0.00  1385.95     0  01:13           0        7.13       0.034
  CC-1                 OUTFALL       0.00   683.00     0  00:00           0        6.89       0.000
  CC-2                 OUTFALL       0.00   683.00     0  00:00           0        6.89       0.000
  JK-1                 OUTFALL       0.00  1000.00     0  00:00           0        2.05       0.000
  JK-2                 OUTFALL       0.00  1000.00     0  00:00           0        2.05       0.000
  WSC                  OUTFALL       0.00   559.53     0  01:48           0        6.18       0.000
  CC-storage           STORAGE       0.00  3190.12     0  01:22           0        19.2      -0.175
  JK-storage           STORAGE       0.00  1236.74     0  01:37           0         6.7      -0.262
  
  
  **********************
  Node Surcharge Summary
  **********************
  
  Surcharging occurs when water rises above the top of the highest conduit.
  ---------------------------------------------------------------------
                                               Max. Height   Min. Depth
                                   Hours       Above Crown    Below Rim
  Node                 Type      Surcharged         Meters       Meters
  ---------------------------------------------------------------------
  WS02004404           JUNCTION        0.22          0.049        2.731
  WS02006109           JUNCTION        2.53          0.295        1.525
  WS02006110           JUNCTION        1.94          0.228        1.622
  WS02006111           JUNCTION        0.01          0.087        1.783
  WS02006112           JUNCTION        2.05          1.680        0.000
  WS02006113           JUNCTION        0.01          0.600        1.330
  WS02006115           JUNCTION        0.01          0.642        1.608
  WS02006116           JUNCTION        0.01          0.000        2.290
  WS02006228           JUNCTION        2.53          0.291        1.909
  WS02006229           JUNCTION        2.54          0.333        2.117
  WS02006230           JUNCTION        1.93          0.198        1.372
  WS02006231           JUNCTION        2.01          0.437        1.093
  WS02006232           JUNCTION        2.56          0.718        0.762
  WS02006234           JUNCTION        2.40          0.895        0.345
  WS02006235           JUNCTION        2.54          0.884        0.406
  WS02006238           JUNCTION        2.56          0.915        0.515
  WS02006239           JUNCTION        2.54          0.886        0.404
  WS02006240           JUNCTION        2.54          0.876        0.514
  WS02006242           JUNCTION        2.55          0.820        0.000
  WS02006243           JUNCTION        2.53          0.749        0.021
  WS02006245           JUNCTION        2.53          0.665        0.185
  WS02006247           JUNCTION        2.53          0.760        0.000
  WS02006248           JUNCTION        2.52          0.380        0.000
  WS02006249           JUNCTION        2.52          0.390        0.000
  WS02006251           JUNCTION        2.13          0.392        0.788
  WS02006252           JUNCTION        2.82          1.100        0.000
  WS02006256           JUNCTION        7.17          2.050        0.000
  YS02001580           JUNCTION        1.35          0.450        0.000
  YS02001583           JUNCTION        1.36          0.500        0.000
  YS02001586           JUNCTION        1.62          0.510        0.000
  YS02001590           JUNCTION        1.83          0.739        0.011
  YS02001593           JUNCTION        1.83          0.840        0.000
  YS02001596           JUNCTION        1.93          1.070        0.000
  YS02001600           JUNCTION        1.98          1.190        0.000
  YS02001601           JUNCTION        2.13          1.440        0.000
  YS02001602           JUNCTION        2.08          1.270        0.000
  YS02001605           JUNCTION        2.06          1.180        0.000
  YS02001607           JUNCTION        1.83          0.680        0.000
  YS02001610           JUNCTION        1.85          0.680        0.000
  YS02001613           JUNCTION        1.82          0.700        0.000
  YS02001616           JUNCTION        1.75          0.610        0.000
  YS02001619           JUNCTION        1.71          0.610        0.000
  YS02001622           JUNCTION        1.71          0.620        0.000
  YS02001625           JUNCTION        1.90          0.780        0.000
  YS02001629           JUNCTION        1.58          0.470        0.000
  YS02001633           JUNCTION        1.92          1.059        0.001
  YS02001641           JUNCTION        1.90          0.999        0.101
  YS02001644           JUNCTION        1.89          0.920        0.000
  YS02001647           JUNCTION        1.62          0.801        0.099
  YS02001649           JUNCTION        1.83          1.022        0.028
  YS02001652           JUNCTION        1.46          0.789        0.341
  YS02001655           JUNCTION        1.01          0.943        0.257
  YS02001658           JUNCTION        0.10          1.013        0.287
  YS02001751           JUNCTION        0.32          0.540        0.660
  YS02001754           JUNCTION        1.30          0.507        0.643
  YS02001757           JUNCTION        1.86          0.816        0.394
  YS02001759           JUNCTION        1.79          0.735        0.475
  YS02001762           JUNCTION        1.77          0.720        0.430
  YS02001765           JUNCTION        1.71          0.820        0.280
  YS02001767           JUNCTION        1.62          1.030        0.000
  YS02001770           JUNCTION        1.56          0.920        0.000
  YS02001774           JUNCTION        1.75          1.050        0.000
  YS02001779           JUNCTION        1.28          0.654        0.026
  YS02001783           JUNCTION        1.08          0.445        1.155
  YS02001784           JUNCTION        1.04          0.328        1.162
  YS02001786           JUNCTION        0.85          0.083        1.347
  YS02001882           JUNCTION        0.98          0.634        0.196
  YS02001884           JUNCTION        1.01          0.667        0.203
  YS02001887           JUNCTION        1.07          0.749        0.201
  YS02001890           JUNCTION        1.08          0.760        0.000
  YS02001895           JUNCTION        0.97          0.563        0.187
  YS02001898           JUNCTION        0.96          0.534        0.206
  YS02001901           JUNCTION        1.04          0.675        0.195
  YS02001904           JUNCTION        1.03          0.638        0.212
  YS02001907           JUNCTION        1.42          0.950        0.000
  YS02001910           JUNCTION        1.12          0.983        0.117
  YS02001915           JUNCTION        0.99          0.935        0.065
  YS02001918           JUNCTION        0.83          0.810        0.000
  YS02001920           JUNCTION        0.85          1.076        0.064
  YS02001923           JUNCTION        0.01          0.770        0.050
  YS02001926           JUNCTION        0.01          0.885        0.015
  YS02001929           JUNCTION        0.01          0.719        0.061
  YS02006553           JUNCTION        1.45          0.976        0.214
  YS02006556           JUNCTION        1.30          0.893        0.457
  YS02006558           JUNCTION        1.27          0.870        0.530
  YS02006561           JUNCTION        0.78          0.111        1.039
  YS02163301           JUNCTION        1.91          0.967        0.063
  YS02163601           JUNCTION        1.94          1.080        0.000
  YS02164001           JUNCTION        1.90          1.023        0.077
  
  
  *********************
  Node Flooding Summary
  *********************
  
  Flooding refers to all water that overflows a node, whether it ponds or not.
  --------------------------------------------------------------------------
                                                             Total   Maximum
                                 Maximum   Time of Max       Flood    Ponded
                        Hours       Rate    Occurrence      Volume     Depth
  Node                 Flooded       LPS   days hr:min    10^6 ltr    Meters
  --------------------------------------------------------------------------
  WS02006112              0.01   1547.89      0  00:00       0.047     0.000
  WS02006242              0.01      5.98      0  03:12       0.000     0.000
  WS02006247              0.01      0.36      0  02:19       0.000     0.000
  WS02006248              0.04     27.81      0  03:13       0.002     0.000
  WS02006249              2.05     98.78      0  01:14       0.505     0.000
  WS02006252              0.01    277.63      0  01:09       0.001     0.000
  WS02006256              2.38    287.69      0  03:30       0.904     0.000
  YS02001580              0.01     81.46      0  01:10       0.000     0.000
  YS02001583              0.01    131.73      0  01:10       0.000     0.000
  YS02001586              1.07    250.42      0  01:35       0.562     0.000
  YS02001593              0.01      0.24      0  02:19       0.000     0.000
  YS02001596              0.01     69.07      0  01:07       0.000     0.000
  YS02001600              0.01      7.88      0  02:19       0.000     0.000
  YS02001601              1.47    726.76      0  01:32       2.366     0.000
  YS02001602              1.37     62.01      0  01:57       0.283     0.000
  YS02001605              0.01     12.05      0  01:11       0.000     0.000
  YS02001607              0.01     75.64      0  01:11       0.000     0.000
  YS02001610              1.21    440.12      0  01:34       1.045     0.000
  YS02001613              0.01     36.79      0  01:11       0.000     0.000
  YS02001616              0.01     17.23      0  01:11       0.000     0.000
  YS02001619              0.01      3.11      0  02:19       0.000     0.000
  YS02001622              0.01      0.27      0  02:19       0.000     0.000
  YS02001625              1.18    719.24      0  01:36       1.583     0.000
  YS02001629              0.09    238.42      0  01:11       0.003     0.000
  YS02001644              0.01     11.01      0  01:30       0.000     0.000
  YS02001767              0.01      1.13      0  02:19       0.000     0.000
  YS02001770              0.01      5.05      0  02:19       0.000     0.000
  YS02001774              0.01      4.10      0  02:19       0.000     0.000
  YS02001890              0.01     12.36      0  01:14       0.000     0.000
  YS02001907              0.74    719.88      0  01:15       1.190     0.000
  YS02001918              0.01     90.76      0  01:15       0.001     0.000
  YS02163601              0.01      4.19      0  02:14       0.000     0.000
  
  
  **********************
  Storage Volume Summary
  **********************
  
  --------------------------------------------------------------------------------------------------
                         Average     Avg  Evap Exfil       Maximum     Max    Time of Max    Maximum
                          Volume    Pcnt  Pcnt  Pcnt        Volume    Pcnt     Occurrence    Outflow
  Storage Unit           1000 m3    Full  Loss  Loss       1000 m3    Full    days hr:min        LPS
  --------------------------------------------------------------------------------------------------
  CC-storage               2.644      41     0     0         4.966      77       0  02:31    1794.81
  JK-storage               0.055      19     0     0         0.151      52       0  00:00    2300.00
  
  
  ***********************
  Outfall Loading Summary
  ***********************
  
  -----------------------------------------------------------
                         Flow       Avg       Max       Total
                         Freq      Flow      Flow      Volume
  Outfall Node           Pcnt       LPS       LPS    10^6 ltr
  -----------------------------------------------------------
  CC-1                  53.92    683.00    683.00       6.892
  CC-2                  53.92    683.00    683.00       6.892
  JK-1                  11.73   1000.00   1000.00       2.054
  JK-2                  11.73   1000.00   1000.00       2.054
  WSC                   99.99    298.31    559.53       6.182
  -----------------------------------------------------------
  System                46.26   3664.31    559.53      24.072
  
  
  ********************
  Link Flow Summary
  ********************
  
  -----------------------------------------------------------------------------
                                 Maximum  Time of Max   Maximum    Max/    Max/
                                  |Flow|   Occurrence   |Veloc|    Full    Full
  Link                 Type          LPS  days hr:min     m/sec    Flow   Depth
  -----------------------------------------------------------------------------
  1                    CONDUIT    559.53     0  01:48      2.83    0.19    0.30
  WS02003060WS02003069 CONDUIT    558.33     0  01:46      1.64    0.22    0.34
  WS02003066WSF200     CONDUIT    541.75     0  01:45      2.86    0.09    0.22
  WS02003067WS02003066 CONDUIT    541.66     0  01:45      1.21    0.17    0.42
  WS02003069WS02003072 CONDUIT    558.15     0  01:46      1.37    0.27    0.39
  WS02003072WS02003073 CONDUIT    557.93     0  01:47      1.44    1.21    0.38
  WS02004401WS02004402 CONDUIT   1210.03     0  00:01      2.53    1.45    0.89
  WS02004402WS02004403 CONDUIT    817.89     0  00:01      2.15    1.18    0.91
  WS02004403WS02004404 CONDUIT    816.05     0  00:01      1.91    0.59    0.96
  WS02004404WS02004405 CONDUIT    787.83     0  00:01      2.33    7.72    0.98
  WS02004405WS02004406 CONDUIT    736.08     0  00:02      2.18    1.45    0.96
  WS02004406WS02004407 CONDUIT    543.72     0  01:43      1.05    0.24    0.63
  WS02004407WS02004409 CONDUIT    542.94     0  01:43      1.96    0.19    0.48
  WS02004409WS02004410 CONDUIT    542.63     0  01:43      1.33    0.70    0.68
  WS02004410WS02004411 CONDUIT    542.24     0  01:44      1.23    0.74    0.69
  WS02004411WS02004412 CONDUIT    542.05     0  01:44      1.16    0.77    0.70
  WS02004412WS02004413 CONDUIT    541.93     0  01:44      1.15    0.36    0.78
  WS02004413WS02003067 CONDUIT    541.53     0  01:45      1.12    0.23    0.59
  WS02006109WS02006110 CONDUIT   1306.78     0  00:00      3.14    2.51    1.00
  WS02006110WS02006113 CONDUIT    570.65     0  01:15      1.38    0.52    1.00
  WS02006111WS02006112 CONDUIT   2307.30     0  00:00      9.18    1.10    0.91
  WS02006112WS02006115 CONDUIT    898.70     0  00:00      1.15    0.53    1.00
  WS02006113WS02006111 CONDUIT   1176.04     0  00:00      2.46    1.41    1.00
  WS02006115WS02006116 CONDUIT   1144.85     0  00:01      1.76    1.47    1.00
  WS02006116WS02004401 CONDUIT   1697.33     0  00:00      3.01    2.34    0.87
  WS02006228WS02006109 CONDUIT    551.13     0  01:15      1.40    2.41    1.00
  WS02006229WS02006228 CONDUIT    551.37     0  01:15      1.25    1.83    1.00
  WS02006230WS02006229 CONDUIT    550.89     0  01:15      1.43   12.26    1.00
  WS02006231WS02006230 CONDUIT    567.99     0  03:12      1.58    8.62    1.00
  WS02006232WS02006231 CONDUIT    561.94     0  01:15      1.46    1.18    1.00
  WS02006234WS02006232 CONDUIT    561.82     0  01:15      1.46    1.14    1.00
  WS02006235WS02006234 CONDUIT    562.60     0  01:15      1.46    5.94    1.00
  WS02006238WS02006235 CONDUIT    448.36     0  03:16      1.48    1.00    1.00
  WS02006239WS02006238 CONDUIT    427.84     0  03:19      1.11    1.37    1.00
  WS02006240WS02006239 CONDUIT    422.56     0  03:21      1.27    1.33    1.00
  WS02006242WS02006240 CONDUIT    416.76     0  03:21      1.14    1.66    1.00
  WS02006243WS02006242 CONDUIT    418.06     0  03:21      1.40    0.89    1.00
  WS02006245WS02006243 CONDUIT    419.89     0  03:21      1.46    1.24    1.00
  WS02006247WS02006245 CONDUIT    419.35     0  03:21      1.46    3.33    1.00
  WS02006248WS02006247 CONDUIT    420.23     0  03:21      1.50    0.91    1.00
  WS02006249WS02006248 CONDUIT    420.61     0  03:21      1.44    2.30    1.00
  WS02006251WS02006249 CONDUIT    793.83     0  00:00      2.76    2.29    1.00
  WS02006252WS02006251 CONDUIT    453.14     0  00:00     24.64    1.66    1.00
  WS02006256WS02006235 CONDUIT    288.76     0  00:01      4.23    3.06    1.00
  WSF200WS02003060     CONDUIT    542.12     0  01:45      2.07    0.12    0.28
  YS02001580YS02001583 CONDUIT    122.44     0  01:09      0.80    0.47    1.00
  YS02001583YS02001586 CONDUIT    166.21     0  01:10      0.78    0.25    1.00
  YS02001586YS02001590 CONDUIT    318.20     0  01:39      1.32    0.56    1.00
  YS02001590YS02001593 CONDUIT    318.11     0  01:22      1.13    2.00    1.00
  YS02001593YS02001596 CONDUIT    317.99     0  01:51      1.68    0.50    1.00
  YS02001596YS02001600 CONDUIT    318.15     0  01:43      1.24    0.62    1.00
  YS02001600YS02001601 CONDUIT    318.05     0  01:43      1.12    0.55    1.00
  YS02001601YS02001602 CONDUIT    598.16     0  01:10      2.12    2.16    1.00
  YS02001602YS02001605 CONDUIT    597.95     0  01:10      2.11   12.65    1.00
  YS02001605YS02001607 CONDUIT    598.06     0  01:10      2.12    3.28    1.00
  YS02001607YS02001610 CONDUIT    574.70     0  01:10      0.88    0.55    1.00
  YS02001610YS02001613 CONDUIT    549.80     0  01:10      0.80    0.63    1.00
  YS02001613YS02001616 CONDUIT    505.37     0  01:10      0.85    0.43    1.00
  YS02001616YS02001619 CONDUIT    463.93     0  01:11      0.91    0.81    1.00
  YS02001619YS02001622 CONDUIT    926.42     0  01:13      1.86    1.37    1.00
  YS02001622YS02001625 CONDUIT    925.59     0  01:13      1.22    0.49    1.00
  YS02001625YS02001629 CONDUIT    925.42     0  01:13      1.18    0.44    1.00
  YS02001629YS02163301 CONDUIT    924.99     0  01:13      1.18    1.14    1.00
  YS02001633YS02163601 CONDUIT   1387.09     0  01:13      1.77    1.46    1.00
  YS02001641YS02001644 CONDUIT   1385.09     0  01:13      1.76    4.48    1.00
  YS02001644YS02001647 CONDUIT   1792.19     0  01:13      2.33    1.05    1.00
  YS02001647YS02001649 CONDUIT   1807.78     0  01:13      2.41    0.95    1.00
  YS02001649YS02001757 CONDUIT   2136.08     0  01:13      2.73    1.30    1.00
  YS02001652YS02001649 CONDUIT    565.91     0  01:29      1.47    0.28    1.00
  YS02001655YS02001652 CONDUIT    585.33     0  01:29      1.88    0.28    1.00
  YS02001658YS02001655 CONDUIT    632.56     0  01:29      2.04    0.27    1.00
  YS02001661YS02001658 CONDUIT    869.95     0  01:29      2.32    0.34    0.81
  YS02001664YS02001661 CONDUIT    512.05     0  01:28      2.21    0.16    0.50
  YS02001745YS02001748 CONDUIT    555.80     0  01:37      2.12    0.21    0.62
  YS02001748YS02001751 CONDUIT    438.71     0  01:22      1.74    0.22    0.99
  YS02001751YS02001754 CONDUIT    344.84     0  01:23      1.70    0.17    1.00
  YS02001754YS02001757 CONDUIT    345.07     0  01:23      1.15    0.14    1.00
  YS02001757CaochengTiaoxuchi CONDUIT   3190.12     0  01:22      4.54    1.38    1.00
  YS02001759YS02001757 CONDUIT   1051.50     0  01:26      1.40    0.75    1.00
  YS02001762YS02001759 CONDUIT    635.29     0  01:15      0.81    0.73    1.00
  YS02001765YS02001762 CONDUIT    627.57     0  01:15      0.87    0.59    1.00
  YS02001767YS02001765 CONDUIT    621.58     0  01:26      0.98    0.78    1.00
  YS02001770YS02001767 CONDUIT    620.43     0  01:15      0.97    2.46    1.00
  YS02001774YS02001770 CONDUIT    156.96     0  01:14      0.80    0.10    1.00
  YS02001779YS02001774 CONDUIT    163.27     0  01:14      0.28    0.08    1.00
  YS02001783YS02001784 CONDUIT   1148.99     0  01:25      2.29    1.58    1.00
  YS02001784YS02001785 CONDUIT   1149.64     0  01:25      2.29    2.68    1.00
  YS02001786YS02001788 CONDUIT   1149.77     0  01:25      2.46    2.22    0.89
  YS02001788YS02001790 CONDUIT   1165.70     0  01:28      2.72    0.86    0.84
  YS02001790YS02001791 CONDUIT   1281.18     0  01:33      3.42    1.39    0.70
  YS02001791YS02001793 CONDUIT   1238.52     0  01:37      6.78    0.53    0.40
  YS02001793JiankangQianchi CONDUIT   1236.74     0  01:37      2.48    0.10    0.61
  YS02001882YS02001884 CONDUIT     95.16     0  01:09      0.46    0.11    1.00
  YS02001884YS02001887 CONDUIT    175.96     0  01:09      0.41    0.23    1.00
  YS02001887YS02001890 CONDUIT    419.86     0  01:30      0.53    0.72    1.00
  YS02001890YS02001895 CONDUIT    419.41     0  01:30      0.54    0.20    1.00
  YS02001895YS02001898 CONDUIT    420.07     0  01:30      0.75    0.73    1.00
  YS02001898YS02001901 CONDUIT    420.35     0  01:30      0.62    0.27    1.00
  YS02001901YS02001904 CONDUIT    420.07     0  01:18      0.69    0.65    1.00
  YS02001904YS02001907 CONDUIT    420.57     0  01:18      0.54    0.15    1.00
  YS02001907YS02006553 CONDUIT    780.77     0  02:00      0.87    0.92    1.00
  YS02001910YS02001907 CONDUIT    913.38     0  01:15      1.16    0.51    1.00
  YS02001915YS02001910 CONDUIT    913.08     0  01:15      1.22    0.45    1.00
  YS02001918YS02001915 CONDUIT    451.23     0  01:15      0.57    0.25    1.00
  YS02001920YS02001918 CONDUIT    449.63     0  01:15      0.76    0.43    1.00
  YS02001923YS02001920 CONDUIT    446.11     0  01:15      0.86    0.20    1.00
  YS02001926YS02001923 CONDUIT    404.62     0  01:15      0.96    0.58    1.00
  YS02001929YS02001926 CONDUIT    399.48     0  01:15      1.10    0.19    1.00
  YS02006553YS02006556 CONDUIT    780.27     0  02:00      0.99    0.67    1.00
  YS02006556YS02006558 CONDUIT    781.54     0  02:00      1.00    0.62    1.00
  YS02006558YS02006561 CONDUIT   1148.80     0  01:26      4.06    2.54    1.00
  YS02006561YS02001783 CONDUIT   1148.50     0  01:25      2.28    0.59    1.00
  YS02163301YS02001633 CONDUIT    924.54     0  01:13      1.18    0.87    1.00
  YS02163601YS02164001 CONDUIT   1385.95     0  01:13      1.76    1.23    1.00
  YS02164001YS02001641 CONDUIT   1384.48     0  01:13      1.76    1.89    1.00
  CC-R1                PUMP       683.00     0  00:00              1.00
  CC-R2                PUMP       683.00     0  00:00              1.00
  CC-S1                PUMP       200.00     0  00:00              1.00
  CC-S2                PUMP       200.00     0  00:00              1.00
  JK-R1                PUMP      1000.00     0  00:00              1.00
  JK-R2                PUMP      1000.00     0  00:00              1.00
  JK-S                 PUMP       300.00     0  00:00              1.00
  
  
  ***************************
  Flow Classification Summary
  ***************************
  
  -------------------------------------------------------------------------------------
                      Adjusted    ---------- Fraction of Time in Flow Class ---------- 
                       /Actual         Up    Down  Sub   Sup   Up    Down  Norm  Inlet 
  Conduit               Length    Dry  Dry   Dry   Crit  Crit  Crit  Crit  Ltd   Ctrl  
  -------------------------------------------------------------------------------------
  1                       1.00   0.00  0.00  0.00  0.00  1.00  0.00  0.00  0.49  0.00
  WS02003060WS02003069    1.00   0.00  0.00  0.00  0.98  0.02  0.00  0.00  0.66  0.00
  WS02003066WSF200        1.00   0.04  0.00  0.00  0.00  0.96  0.00  0.00  0.72  0.00
  WS02003067WS02003066    1.00   0.02  0.02  0.00  0.96  0.00  0.00  0.00  0.00  0.00
  WS02003069WS02003072    1.00   0.00  0.00  0.00  0.99  0.01  0.00  0.00  0.66  0.00
  WS02003072WS02003073    1.00   0.00  0.00  0.00  0.00  0.00  0.00  1.00  0.00  0.00
  WS02004401WS02004402    1.00   0.00  0.00  0.00  1.00  0.00  0.00  0.00  0.00  0.00
  WS02004402WS02004403    1.00   0.00  0.00  0.00  1.00  0.00  0.00  0.00  0.00  0.00
  WS02004403WS02004404    1.00   0.00  0.00  0.00  1.00  0.00  0.00  0.00  0.00  0.00
  WS02004404WS02004405    1.00   0.00  0.00  0.00  1.00  0.00  0.00  0.00  0.01  0.00
  WS02004405WS02004406    1.00   0.00  0.00  0.00  1.00  0.00  0.00  0.00  0.00  0.00
  WS02004406WS02004407    1.00   0.00  0.00  0.00  1.00  0.00  0.00  0.00  0.00  0.00
  WS02004407WS02004409    1.00   0.00  0.00  0.00  0.98  0.01  0.00  0.00  0.99  0.00
  WS02004409WS02004410    1.00   0.00  0.00  0.00  0.99  0.00  0.00  0.00  0.00  0.00
  WS02004410WS02004411    1.00   0.00  0.00  0.00  0.99  0.00  0.00  0.00  0.00  0.00
  WS02004411WS02004412    1.00   0.01  0.00  0.00  0.99  0.00  0.00  0.00  0.00  0.00
  WS02004412WS02004413    1.00   0.01  0.00  0.00  0.99  0.00  0.00  0.00  0.00  0.00
  WS02004413WS02003067    1.00   0.01  0.01  0.00  0.00  0.00  0.98  0.00  0.00  0.00
  WS02006109WS02006110    1.00   0.00  0.00  0.00  1.00  0.00  0.00  0.00  0.00  0.00
  WS02006110WS02006113    1.00   0.00  0.00  0.00  1.00  0.00  0.00  0.00  0.00  0.00
  WS02006111WS02006112    1.00   0.00  0.00  0.00  1.00  0.00  0.00  0.00  1.00  0.00
  WS02006112WS02006115    1.00   0.00  0.00  0.00  1.00  0.00  0.00  0.00  0.00  0.00
  WS02006113WS02006111    1.00   0.00  0.00  0.00  0.01  0.99  0.00  0.00  0.12  0.00
  WS02006115WS02006116    1.00   0.00  0.00  0.00  1.00  0.00  0.00  0.00  0.00  0.00
  WS02006116WS02004401    1.00   0.00  0.00  0.00  1.00  0.00  0.00  0.00  0.00  0.00
  WS02006228WS02006109    1.00   0.00  0.00  0.00  1.00  0.00  0.00  0.00  0.00  0.00
  WS02006229WS02006228    1.00   0.00  0.00  0.00  1.00  0.00  0.00  0.00  0.00  0.00
  WS02006230WS02006229    1.00   0.00  0.00  0.00  1.00  0.00  0.00  0.00  0.03  0.00
  WS02006231WS02006230    1.00   0.00  0.00  0.00  0.52  0.00  0.48  0.00  0.00  0.00
  WS02006232WS02006231    1.00   0.00  0.00  0.00  0.99  0.00  0.01  0.00  0.00  0.00
  WS02006234WS02006232    1.00   0.00  0.00  0.00  1.00  0.00  0.00  0.00  0.01  0.00
  WS02006235WS02006234    1.00   0.00  0.00  0.00  0.96  0.00  0.04  0.00  0.00  0.00
  WS02006238WS02006235    1.00   0.00  0.00  0.00  1.00  0.00  0.00  0.00  0.00  0.00
  WS02006239WS02006238    1.00   0.00  0.00  0.00  1.00  0.00  0.00  0.00  0.07  0.00
  WS02006240WS02006239    1.00   0.00  0.00  0.00  0.92  0.00  0.00  0.07  0.16  0.00
  WS02006242WS02006240    1.00   0.00  0.00  0.00  0.98  0.00  0.01  0.00  0.00  0.00
  WS02006243WS02006242    1.00   0.00  0.00  0.00  0.99  0.00  0.00  0.01  0.59  0.00
  WS02006245WS02006243    1.00   0.00  0.00  0.00  0.91  0.00  0.00  0.09  0.00  0.00
  WS02006247WS02006245    1.00   0.00  0.00  0.00  0.97  0.00  0.00  0.02  0.00  0.00
  WS02006248WS02006247    1.00   0.00  0.00  0.00  0.99  0.00  0.00  0.01  0.53  0.00
  WS02006249WS02006248    1.00   0.00  0.00  0.00  0.62  0.00  0.38  0.00  0.00  0.00
  WS02006251WS02006249    1.00   0.00  0.00  0.00  0.99  0.01  0.00  0.00  0.59  0.00
  WS02006252WS02006251    1.00   0.00  0.33  0.00  0.43  0.00  0.23  0.00  0.00  0.00
  WS02006256WS02006235    1.00   0.00  0.00  0.00  0.97  0.03  0.00  0.00  0.01  0.00
  WSF200WS02003060        1.00   0.00  0.04  0.00  0.30  0.67  0.00  0.00  0.63  0.00
  YS02001580YS02001583    1.00   0.12  0.38  0.00  0.50  0.00  0.00  0.00  0.63  0.00
  YS02001583YS02001586    1.00   0.31  0.12  0.00  0.57  0.00  0.00  0.00  0.63  0.00
  YS02001586YS02001590    1.00   0.11  0.00  0.00  0.63  0.02  0.00  0.24  0.23  0.00
  YS02001590YS02001593    1.00   0.11  0.00  0.00  0.40  0.00  0.49  0.00  0.00  0.00
  YS02001593YS02001596    1.00   0.11  0.00  0.00  0.41  0.01  0.00  0.47  0.01  0.00
  YS02001596YS02001600    1.00   0.11  0.00  0.00  0.45  0.01  0.00  0.43  0.02  0.00
  YS02001600YS02001601    1.00   0.11  0.00  0.00  0.89  0.00  0.00  0.00  0.56  0.00
  YS02001601YS02001602    1.00   0.11  0.00  0.00  0.89  0.00  0.00  0.00  0.00  0.00
  YS02001602YS02001605    1.00   0.11  0.00  0.00  0.89  0.00  0.00  0.00  0.00  0.00
  YS02001605YS02001607    1.00   0.11  0.00  0.00  0.89  0.00  0.00  0.00  0.00  0.00
  YS02001607YS02001610    1.00   0.11  0.00  0.00  0.89  0.00  0.00  0.00  0.00  0.00
  YS02001610YS02001613    1.00   0.11  0.00  0.00  0.89  0.00  0.00  0.00  0.00  0.00
  YS02001613YS02001616    1.00   0.11  0.00  0.00  0.89  0.00  0.00  0.00  0.00  0.00
  YS02001616YS02001619    1.00   0.11  0.00  0.00  0.89  0.00  0.00  0.00  0.00  0.00
  YS02001619YS02001622    1.00   0.11  0.00  0.00  0.89  0.00  0.00  0.00  0.32  0.00
  YS02001622YS02001625    1.00   0.11  0.00  0.00  0.89  0.00  0.00  0.00  0.00  0.00
  YS02001625YS02001629    1.00   0.11  0.01  0.00  0.43  0.00  0.45  0.00  0.00  0.00
  YS02001629YS02163301    1.00   0.11  0.00  0.00  0.89  0.00  0.00  0.00  0.00  0.00
  YS02001633YS02163601    1.00   0.00  0.01  0.00  0.99  0.00  0.00  0.00  0.12  0.00
  YS02001641YS02001644    1.00   0.00  0.01  0.00  0.99  0.00  0.00  0.00  0.00  0.00
  YS02001644YS02001647    1.00   0.00  0.11  0.00  0.89  0.00  0.00  0.00  0.00  0.00
  YS02001647YS02001649    1.00   0.00  0.11  0.00  0.69  0.20  0.00  0.00  0.56  0.00
  YS02001649YS02001757    1.00   0.00  0.00  0.00  0.80  0.20  0.00  0.00  0.43  0.00
  YS02001652YS02001649    1.00   0.00  0.00  0.00  0.99  0.01  0.00  0.00  0.68  0.00
  YS02001655YS02001652    1.00   0.00  0.00  0.00  0.45  0.00  0.00  0.54  0.02  0.00
  YS02001658YS02001655    1.00   0.00  0.11  0.00  0.79  0.10  0.00  0.00  0.62  0.00
  YS02001661YS02001658    1.00   0.11  0.00  0.00  0.64  0.25  0.00  0.00  0.67  0.00
  YS02001664YS02001661    1.00   0.11  0.00  0.00  0.74  0.16  0.00  0.00  0.86  0.00
  YS02001745YS02001748    1.00   0.00  0.00  0.00  0.38  0.01  0.00  0.61  0.09  0.00
  YS02001748YS02001751    1.00   0.00  0.00  0.00  0.94  0.06  0.00  0.00  0.73  0.00
  YS02001751YS02001754    1.00   0.00  0.00  0.00  0.45  0.00  0.00  0.55  0.02  0.00
  YS02001754YS02001757    1.00   0.00  0.00  0.00  1.00  0.00  0.00  0.00  0.71  0.00
  YS02001757CaochengTiaoxuchi    1.00   0.00  0.00  0.00  0.93  0.07  0.00  0.00  0.70  0.00
  YS02001759YS02001757    1.00   0.00  0.00  0.00  1.00  0.00  0.00  0.00  0.62  0.00
  YS02001762YS02001759    1.00   0.00  0.00  0.00  1.00  0.00  0.00  0.00  0.01  0.00
  YS02001765YS02001762    1.00   0.00  0.00  0.00  1.00  0.00  0.00  0.00  0.67  0.00
  YS02001767YS02001765    1.00   0.00  0.00  0.00  1.00  0.00  0.00  0.00  0.00  0.00
  YS02001770YS02001767    1.00   0.00  0.00  0.00  1.00  0.00  0.00  0.00  0.00  0.00
  YS02001774YS02001770    1.00   0.00  0.11  0.00  0.74  0.00  0.15  0.00  0.00  0.00
  YS02001779YS02001774    1.00   0.00  0.00  0.00  1.00  0.00  0.00  0.00  0.70  0.00
  YS02001783YS02001784    1.00   0.00  0.11  0.00  0.88  0.00  0.00  0.00  0.55  0.00
  YS02001784YS02001785    1.00   0.00  0.00  0.00  1.00  0.00  0.00  0.00  0.12  0.00
  YS02001786YS02001788    1.00   0.00  0.00  0.00  0.71  0.29  0.00  0.00  0.00  0.00
  YS02001788YS02001790    1.00   0.00  0.00  0.00  0.22  0.78  0.00  0.00  0.75  0.00
  YS02001790YS02001791    1.00   0.00  0.00  0.00  0.02  0.98  0.00  0.00  0.15  0.00
  YS02001791YS02001793    1.00   0.00  0.00  0.00  0.00  1.00  0.00  0.00  0.01  0.00
  YS02001793JiankangQianchi    1.00   0.00  0.00  0.00  0.84  0.16  0.00  0.00  1.00  0.00
  YS02001882YS02001884    1.00   0.11  0.00  0.00  0.89  0.00  0.00  0.00  0.00  0.00
  YS02001884YS02001887    1.00   0.07  0.03  0.00  0.90  0.00  0.00  0.00  0.00  0.00
  YS02001887YS02001890    1.00   0.00  0.00  0.00  0.96  0.00  0.04  0.00  0.00  0.00
  YS02001890YS02001895    1.00   0.00  0.11  0.00  0.89  0.00  0.00  0.00  0.00  0.00
  YS02001895YS02001898    1.00   0.11  0.00  0.00  0.88  0.00  0.00  0.00  0.00  0.00
  YS02001898YS02001901    1.00   0.11  0.00  0.00  0.89  0.00  0.00  0.00  0.00  0.00
  YS02001901YS02001904    1.00   0.11  0.00  0.00  0.89  0.00  0.00  0.00  0.00  0.00
  YS02001904YS02001907    1.00   0.00  0.11  0.00  0.89  0.00  0.00  0.00  0.00  0.00
  YS02001907YS02006553    1.00   0.00  0.03  0.00  0.97  0.00  0.00  0.00  0.00  0.00
  YS02001910YS02001907    1.00   0.00  0.00  0.00  0.96  0.00  0.00  0.04  0.10  0.00
  YS02001915YS02001910    1.00   0.00  0.00  0.00  0.97  0.03  0.00  0.00  0.11  0.00
  YS02001918YS02001915    1.00   0.00  0.00  0.00  0.97  0.03  0.00  0.00  0.64  0.00
  YS02001920YS02001918    1.00   0.00  0.00  0.00  1.00  0.00  0.00  0.00  0.01  0.00
  YS02001923YS02001920    1.00   0.00  0.00  0.00  1.00  0.00  0.00  0.00  0.85  0.00
  YS02001926YS02001923    1.00   0.00  0.08  0.00  0.21  0.00  0.71  0.00  0.00  0.00
  YS02001929YS02001926    1.00   0.00  0.11  0.00  0.89  0.00  0.00  0.00  0.76  0.00
  YS02006553YS02006556    1.00   0.01  0.00  0.00  0.99  0.00  0.00  0.00  0.03  0.00
  YS02006556YS02006558    1.00   0.00  0.00  0.00  1.00  0.00  0.00  0.00  0.00  0.00
  YS02006558YS02006561    1.00   0.11  0.00  0.00  0.19  0.70  0.00  0.00  0.12  0.00
  YS02006561YS02001783    1.00   0.11  0.00  0.00  0.28  0.61  0.00  0.00  0.62  0.00
  YS02163301YS02001633    1.00   0.00  0.11  0.00  0.89  0.00  0.00  0.00  0.00  0.00
  YS02163601YS02164001    1.00   0.00  0.08  0.00  0.92  0.00  0.00  0.00  0.00  0.00
  YS02164001YS02001641    1.00   0.01  0.08  0.00  0.92  0.00  0.00  0.00  0.05  0.00
  
  
  *************************
  Conduit Surcharge Summary
  *************************
  
  ----------------------------------------------------------------------------
                                                           Hours        Hours 
                         --------- Hours Full --------   Above Full   Capacity
  Conduit                Both Ends  Upstream  Dnstream   Normal Flow   Limited
  ----------------------------------------------------------------------------
  WS02003072WS02003073        0.01      0.01      0.01      2.20         0.01
  WS02004401WS02004402        0.01      0.01      0.01      0.01         0.01
  WS02004402WS02004403        0.01      0.01      0.01      0.01         0.01
  WS02004403WS02004404        0.01      0.01      0.16      0.01         0.01
  WS02004404WS02004405        0.01      0.16      0.01      3.19         0.01
  WS02004405WS02004406        0.01      0.01      0.01      1.90         0.01
  WS02006109WS02006110        1.93      1.94      2.55      1.95         0.01
  WS02006110WS02006113        0.01      0.01      2.56      0.01         0.01
  WS02006111WS02006112        0.01      0.01      2.64      0.01         0.01
  WS02006112WS02006115        0.01      0.01      2.04      0.01         0.01
  WS02006113WS02006111        0.01      0.01      0.01      0.01         0.01
  WS02006115WS02006116        0.01      0.01      0.01      0.01         0.01
  WS02006116WS02004401        0.01      0.01      0.01      0.01         0.01
  WS02006228WS02006109        2.53      2.55      2.53      2.78         2.53
  WS02006229WS02006228        2.53      2.54      2.53      2.67         2.51
  WS02006230WS02006229        2.59      2.64      2.59      3.51         2.59
  WS02006231WS02006230        1.93      1.93      2.05      3.11         0.01
  WS02006232WS02006231        2.01      2.01      2.56      2.06         0.01
  WS02006234WS02006232        2.53      2.53      2.56      2.01         2.09
  WS02006235WS02006234        2.37      2.38      2.54      2.98         0.04
  WS02006238WS02006235        2.55      2.55      2.57      0.01         0.01
  WS02006239WS02006238        2.55      2.56      2.56      2.63         2.10
  WS02006240WS02006239        2.54      2.54      2.54      2.62         1.93
  WS02006242WS02006240        2.54      2.54      2.59      2.70         0.01
  WS02006243WS02006242        2.54      2.54      2.55      0.01         0.07
  WS02006245WS02006243        2.53      2.53      2.53      0.72         0.94
  WS02006247WS02006245        2.53      2.53      2.53      2.79         2.51
  WS02006248WS02006247        2.52      2.52      2.53      0.01         0.10
  WS02006249WS02006248        2.52      2.52      2.52      2.77         0.01
  WS02006251WS02006249        2.52      2.53      2.52      2.71         2.38
  WS02006252WS02006251        2.80      2.81      2.81      2.82         0.01
  WS02006256WS02006235        2.91      3.04      6.73      2.43         0.10
  YS02001580YS02001583        1.35      1.35      1.42      0.01         0.01
  YS02001583YS02001586        1.36      1.36      1.62      0.01         0.01
  YS02001586YS02001590        1.63      1.63      1.83      0.01         0.01
  YS02001590YS02001593        1.83      1.83      1.86      1.87         0.01
  YS02001593YS02001596        1.85      1.85      1.93      0.01         0.01
  YS02001596YS02001600        1.95      1.95      1.98      0.01         0.01
  YS02001600YS02001601        2.01      2.01      2.13      0.01         0.01
  YS02001601YS02001602        2.08      2.08      2.14      1.99         0.01
  YS02001602YS02001605        2.06      2.06      2.08      2.56         0.01
  YS02001605YS02001607        2.04      2.06      2.04      2.08         2.03
  YS02001607YS02001610        1.83      1.83      1.85      0.01         0.01
  YS02001610YS02001613        1.82      1.82      1.85      0.01         0.01
  YS02001613YS02001616        1.75      1.75      1.82      0.01         0.01
  YS02001616YS02001619        1.71      1.71      1.75      0.01         0.02
  YS02001619YS02001622        1.71      1.71      1.71      1.70         1.48
  YS02001622YS02001625        1.71      1.71      1.90      0.01         0.01
  YS02001625YS02001629        1.58      1.58      1.90      0.01         0.01
  YS02001629YS02163301        1.91      1.91      1.91      0.05         0.19
  YS02001633YS02163601        1.92      1.92      1.94      0.51         0.61
  YS02001641YS02001644        1.89      1.90      1.89      2.15         1.87
  YS02001644YS02001647        1.62      1.62      1.89      0.05         0.01
  YS02001647YS02001649        1.62      1.62      1.83      0.01         0.01
  YS02001649YS02001757        1.81      1.83      1.86      0.57         0.65
  YS02001652YS02001649        1.51      1.51      1.83      0.01         0.01
  YS02001655YS02001652        1.00      1.00      1.46      0.01         0.01
  YS02001658YS02001655        0.08      0.08      1.00      0.01         0.01
  YS02001661YS02001658        0.01      0.01      0.08      0.01         0.01
  YS02001748YS02001751        0.01      0.01      0.31      0.01         0.01
  YS02001751YS02001754        0.31      0.31      1.30      0.01         0.01
  YS02001754YS02001757        1.38      1.38      1.86      0.01         0.01
  YS02001757CaochengTiaoxuchi        1.59      1.86      2.00      0.81         0.50
  YS02001759YS02001757        1.79      1.79      1.86      0.01         0.01
  YS02001762YS02001759        1.77      1.77      1.79      0.01         0.02
  YS02001765YS02001762        1.71      1.71      1.77      0.01         0.01
  YS02001767YS02001765        1.62      1.62      1.71      0.01         0.03
  YS02001770YS02001767        1.61      1.61      1.62      1.15         1.04
  YS02001774YS02001770        1.56      1.56      1.75      0.01         0.01
  YS02001779YS02001774        1.28      1.28      1.75      0.01         0.01
  YS02001783YS02001784        1.04      1.08      1.04      1.34         1.04
  YS02001784YS02001785        0.85      1.04      0.85      1.88         0.85
  YS02001786YS02001788        0.01      0.85      0.01      1.48         0.01
  YS02001790YS02001791        0.01      0.01      0.01      1.01         0.01
  YS02001793JiankangQianchi        0.01      0.01      2.65      0.01         0.01
  YS02001882YS02001884        0.98      0.98      1.01      0.01         0.01
  YS02001884YS02001887        1.05      1.05      1.07      0.01         0.01
  YS02001887YS02001890        1.08      1.08      1.10      0.01         0.01
  YS02001890YS02001895        0.97      0.97      1.13      0.01         0.01
  YS02001895YS02001898        0.96      0.96      0.97      0.01         0.01
  YS02001898YS02001901        0.97      0.97      1.04      0.01         0.01
  YS02001901YS02001904        1.03      1.03      1.04      0.01         0.01
  YS02001904YS02001907        1.03      1.03      1.46      0.01         0.01
  YS02001907YS02006553        1.89      1.89      1.92      0.01         0.01
  YS02001910YS02001907        1.12      1.12      1.42      0.01         0.01
  YS02001915YS02001910        0.99      0.99      1.12      0.01         0.01
  YS02001918YS02001915        0.83      0.83      0.99      0.01         0.01
  YS02001920YS02001918        0.83      0.83      0.85      0.01         0.01
  YS02001923YS02001920        0.75      0.75      0.85      0.01         0.01
  YS02001926YS02001923        0.01      0.01      0.01      0.01         0.01
  YS02001929YS02001926        0.01      0.01      0.01      0.01         0.01
  YS02006553YS02006556        1.30      1.30      1.45      0.01         0.01
  YS02006556YS02006558        1.37      1.37      1.49      0.01         0.01
  YS02006558YS02006561        0.88      1.27      0.88      1.76         0.88
  YS02006561YS02001783        0.78      0.78      1.08      0.01         0.01
  YS02163301YS02001633        1.91      1.91      1.93      0.01         0.01
  YS02163601YS02164001        1.90      1.90      1.94      0.08         0.01
  YS02164001YS02001641        1.90      1.90      1.90      1.89         1.72
  
  
  ***************
  Pumping Summary
  ***************
  
  ---------------------------------------------------------------------------------------------------------
                                                  Min       Avg       Max     Total     Power    % Time Off
                        Percent   Number of      Flow      Flow      Flow    Volume     Usage    Pump Curve
  Pump                 Utilized   Start-Ups       LPS       LPS       LPS  10^6 ltr     Kw-hr    Low   High
  ---------------------------------------------------------------------------------------------------------
  CC-R1                   35.07          60      0.00    683.00    683.00     6.897    127.72    0.0   28.6
  CC-R2                   35.07          60      0.00    683.00    683.00     6.897    127.72    0.0   28.6
  CC-S1                   35.07          60      0.00    200.00    200.00     2.020     11.51    0.0    0.0
  CC-S2                   35.07          60      0.00    200.00    200.00     2.020     11.51    0.0    0.0
  JK-R1                    7.16         438      0.00   1000.00   1000.00     2.062     11.47    0.0    0.0
  JK-R2                    7.16         438      0.00   1000.00   1000.00     2.062     11.47    0.0    0.0
  JK-S                    29.81         234      0.00    300.00    300.00     2.576     51.21    0.0    0.0
  

  Analysis begun on:  Wed Aug  9 15:14:42 2023
  Analysis ended on:  Wed Aug  9 15:16:26 2023
  Total elapsed time: 00:01:44