
  OWA STORM WATER MANAGEMENT MODEL - VERSION v5.1.14 (OWA 2022-07-31)
  --------------------------------------------------------------

  WARNING 04: minimum elevation drop used for Conduit WS02004404WS02004405
  WARNING 03: negative offset ignored for Link YS02001904YS02001907
  
  *********************************************************
  NOTE: The summary statistics displayed in this report are
  based on results found at every computational time step,  
  not just on results from each reporting time step.
  *********************************************************
  
  ****************
  Analysis Options
  ****************
  Flow Units ............... LPS
  Process Models:
    Rainfall/Runoff ........ YES
    RDII ................... NO
    Snowmelt ............... NO
    Groundwater ............ NO
    Flow Routing ........... YES
    Ponding Allowed ........ NO
    Water Quality .......... NO
  Infiltration Method ...... HORTON
  Flow Routing Method ...... DYNWAVE
  Surcharge Method ......... EXTRAN
  Starting Date ............ 08/28/2015 08:00:00
  Ending Date .............. 08/28/2015 16:00:00
  Antecedent Dry Days ...... 8.0
  Report Time Step ......... 00:01:00
  Wet Time Step ............ 00:01:00
  Dry Time Step ............ 00:01:00
  Routing Time Step ........ 30.00 sec
  Variable Time Step ....... YES
  Maximum Trials ........... 8
  Number of Threads ........ 4
  Head Tolerance ........... 0.001500 m
  
  
  **************************        Volume         Depth
  Runoff Quantity Continuity     hectare-m            mm
  **************************     ---------       -------
  Initial LID Storage ......         0.072         1.184
  Total Precipitation ......         9.811       161.960
  Evaporation Loss .........         0.000         0.000
  Infiltration Loss ........         0.212         3.498
  Surface Runoff ...........         8.370       138.173
  Final Storage ............         1.303        21.509
  Continuity Error (%) .....        -0.022
  
  
  **************************        Volume        Volume
  Flow Routing Continuity        hectare-m      10^6 ltr
  **************************     ---------     ---------
  Dry Weather Inflow .......         0.630         6.296
  Wet Weather Inflow .......         8.370        83.697
  Groundwater Inflow .......         0.000         0.000
  RDII Inflow ..............         0.000         0.000
  External Inflow ..........         0.105         1.045
  External Outflow .........         3.469        34.694
  Flooding Loss ............         5.624        56.242
  Evaporation Loss .........         0.000         0.000
  Exfiltration Loss ........         0.000         0.000
  Initial Stored Volume ....         0.303         3.031
  Final Stored Volume ......         0.318         3.182
  Continuity Error (%) .....        -0.052
  
  
  *************************
  Highest Continuity Errors
  *************************
  Node YS02001884 (4.81%)
  Node YS02001583 (-2.43%)
  Node WS02006256 (1.93%)
  Node HS02004842 (1.72%)
  
  
  ***************************
  Time-Step Critical Elements
  ***************************
  Link WS02006280WS02006229 (53.53%)
  Link YS02001791YS02001793 (13.02%)
  Link WS02006238WS02006235 (9.73%)
  Link WS02004404WS02004405 (4.53%)
  Link WS02006252WS02006251 (3.17%)
  
  
  ********************************
  Highest Flow Instability Indexes
  ********************************
  Link YS02001602YS02001605 (30)
  Link YS02001607YS02001610 (30)
  Link WS02006256WS02006235 (29)
  Link WS02006238WS02006235 (28)
  Link WS02004404WS02004405 (27)
  
  
  *************************
  Routing Time Step Summary
  *************************
  Minimum Time Step           :     0.00 sec
  Average Time Step           :     2.76 sec
  Maximum Time Step           :     6.46 sec
  Percent in Steady State     :    -0.00
  Average Iterations per Step :     4.25
  Percent Not Converging      :    23.26
  
  
  ***************************
  Subcatchment Runoff Summary
  ***************************
  
  ------------------------------------------------------------------------------------------------------------------------------
                            Total      Total      Total      Total     Imperv       Perv      Total       Total     Peak  Runoff
                           Precip      Runon       Evap      Infil     Runoff     Runoff     Runoff      Runoff   Runoff   Coeff
  Subcatchment                 mm         mm         mm         mm         mm         mm         mm    10^6 ltr      LPS
  ------------------------------------------------------------------------------------------------------------------------------
  sub0                      76.87       0.00       0.00       1.01      70.25       4.37      74.62        0.06    44.14   0.971
  sub1                      76.87       0.00       0.00       1.53      60.21       6.05      66.26        0.44   273.99   0.862
  sub10                     76.87       0.00       0.00       0.98      56.42       4.02      60.44        0.67   431.66   0.786
  sub11                     76.87       0.00       0.00       0.89      52.44       3.75      56.19        0.65   447.50   0.731
  sub12                     76.87       0.00       0.00       1.57      53.31       6.54      59.85        0.52   376.56   0.779
  sub14                     76.87       0.00       0.00       0.97      49.66       4.03      53.69        0.51   345.78   0.698
  sub15                     76.87       0.00       0.00       4.37      44.65      15.11      59.76        1.03   609.69   0.777
  sub16                     76.87       0.00       0.00       4.65      43.55      17.18      60.73        0.64   413.53   0.790
  sub17                     76.87       0.00       0.00       4.98      48.06      18.05      66.11        0.57   359.35   0.860
  sub2                      76.87       0.00       0.00       6.88      44.02      19.46      63.47        0.59   289.34   0.826
  sub22                     76.87       0.00       0.00       7.73      41.68      24.28      65.96        4.17  2246.05   0.858
  sub23                     76.87       0.00       0.00       5.82      42.92      19.84      62.76        2.99  1761.21   0.816
  sub3                      76.87       0.00       0.00       7.39      43.60      18.72      62.31        1.40   623.73   0.811
  sub4                      76.87       0.00       0.00       1.66      59.33       5.82      65.15        1.36   672.60   0.848
  sub5                      76.87       0.00       0.00       0.87      58.25       3.59      61.84        0.70   443.93   0.804
  sub60                    232.27       0.00       0.00       1.47     156.85      20.04     199.34        2.62  2193.82   0.858
  sub61                    232.27       0.00       0.00       2.28     156.71      30.01     204.67        3.76  3054.59   0.881
  sub62                    232.27       0.00       0.00       1.00     167.10      13.62     201.72        5.53  4460.07   0.868
  sub63                    232.27       0.00       0.00       4.20     134.22      50.94     203.02        4.61  3645.42   0.874
  sub64                    232.27       0.00       0.00       2.01     152.89      25.13     199.77        4.80  3809.15   0.860
  sub65                    232.27       0.00       0.00       1.85     165.05      22.97     205.56        5.66  4284.38   0.885
  sub66                    232.27       0.00       0.00       4.97     129.94      48.44     198.76        9.27  6514.63   0.856
  sub67                    232.27       0.00       0.00       0.99     171.26      13.99     204.34        3.80  3161.61   0.880
  sub68                    232.27       0.00       0.00       1.75     151.28      23.03     197.75        5.44  4528.26   0.851
  sub69                    232.27       0.00       0.00       1.65     156.38      25.96     202.77        7.51  5754.82   0.873
  sub7                      76.87       0.00       0.00       1.03      53.23       4.33      57.55        0.19   134.87   0.749
  sub70                    232.27       0.00       0.00       5.64     125.40      59.02     202.26        5.84  3750.76   0.871
  sub71                    232.27       0.00       0.00       0.93     151.84      12.36     192.25        5.03  4163.26   0.828
  sub72                    232.27       0.00       0.00       0.89     164.10      11.54     198.82        2.73  2097.26   0.856
  sub8                      76.87       0.00       0.00       1.01      51.73       4.20      55.93        0.36   242.96   0.728
  sub9                      76.87       0.00       0.00       0.98      50.15       4.07      54.22        0.26   177.03   0.705
  

  ***********************
  LID Performance Summary
  ***********************

  --------------------------------------------------------------------------------------------------------------------
                                         Total      Evap     Infil   Surface    Drain    Initial     Final  Continuity
                                        Inflow      Loss      Loss   Outflow   Outflow   Storage   Storage       Error
  Subcatchment      LID Control             mm        mm        mm        mm        mm        mm        mm           %
  --------------------------------------------------------------------------------------------------------------------
  sub1              GreenRoof            76.87      0.00      0.00      0.00      0.00      7.05     83.96       -0.05
  sub10             GreenRoof            76.87      0.00      0.00      0.00      0.00      7.05     83.96       -0.05
  sub11             GreenRoof            76.87      0.00      0.00      0.00      0.00      7.05     83.96       -0.05
  sub12             GreenRoof            76.87      0.00      0.00      0.00      0.00      7.05     83.96       -0.05
  sub14             GreenRoof            76.87      0.00      0.00      0.00      0.00      7.05     83.96       -0.05
  sub15             GreenRoof            76.87      0.00      0.00      0.00      0.00      7.05     83.96       -0.05
  sub16             GreenRoof            76.87      0.00      0.00      0.00      0.00      7.05     83.96       -0.05
  sub17             GreenRoof            76.87      0.00      0.00      0.00      0.00      7.05     83.96       -0.05
  sub2              GreenRoof            76.87      0.00      0.00      0.00      0.00      7.05     83.96       -0.05
  sub22             GreenRoof            76.87      0.00      0.00      0.00      0.00      7.05     83.96       -0.05
  sub23             GreenRoof            76.87      0.00      0.00      0.00      0.00      7.05     83.96       -0.05
  sub3              GreenRoof            76.87      0.00      0.00      0.00      0.00      7.05     83.96       -0.05
  sub4              GreenRoof            76.87      0.00      0.00      0.00      0.00      7.05     83.96       -0.05
  sub5              GreenRoof            76.87      0.00      0.00      0.00      0.00      7.05     83.96       -0.05
  sub60             GreenRoof           232.27      0.00      0.00     98.36      0.00      7.05    140.96        0.00
  sub61             GreenRoof           232.27      0.00      0.00     98.36      0.00      7.05    140.96        0.00
  sub62             GreenRoof           232.27      0.00      0.00     98.36      0.00      7.05    140.96        0.00
  sub63             GreenRoof           232.27      0.00      0.00     98.36      0.00      7.05    140.96        0.00
  sub64             GreenRoof           232.27      0.00      0.00     98.36      0.00      7.05    140.96        0.00
  sub65             GreenRoof           232.27      0.00      0.00     98.36      0.00      7.05    140.96        0.00
  sub66             GreenRoof           232.27      0.00      0.00     98.36      0.00      7.05    140.96        0.00
  sub67             GreenRoof           232.27      0.00      0.00     98.36      0.00      7.05    140.96        0.00
  sub68             GreenRoof           232.27      0.00      0.00     98.36      0.00      7.05    140.96        0.00
  sub69             GreenRoof           232.27      0.00      0.00     98.36      0.00      7.05    140.96        0.00
  sub7              GreenRoof            76.87      0.00      0.00      0.00      0.00      7.05     83.96       -0.05
  sub70             GreenRoof           232.27      0.00      0.00     98.36      0.00      7.05    140.96        0.00
  sub71             GreenRoof           232.27      0.00      0.00     98.36      0.00      7.05    140.96        0.00
  sub72             GreenRoof           232.27      0.00      0.00     98.36      0.00      7.05    140.96        0.00
  sub8              GreenRoof            76.87      0.00      0.00      0.00      0.00      7.05     83.96       -0.05
  sub9              GreenRoof            76.87      0.00      0.00      0.00      0.00      7.05     83.96       -0.05
  
  ******************
  Node Depth Summary
  ******************
  
  ---------------------------------------------------------------------------------
                                 Average  Maximum  Maximum  Time of Max    Reported
                                   Depth    Depth      HGL   Occurrence   Max Depth
  Node                 Type       Meters   Meters   Meters  days hr:min      Meters
  ---------------------------------------------------------------------------------
  HS02004478           JUNCTION     0.27     1.71    10.94     0  01:55        1.71
  HS02004479           JUNCTION     0.36     1.85    11.05     0  02:00        1.85
  HS02004480           JUNCTION     0.32     1.66    10.90     0  01:46        1.63
  HS02004770           JUNCTION     0.32     1.42    11.25     0  01:43        1.42
  HS02004777           JUNCTION     0.34     1.48    11.28     0  01:43        1.48
  HS02004785           JUNCTION     0.23     1.49    11.39     0  01:43        1.40
  HS02004788           JUNCTION     0.20     1.42    11.32     0  01:43        1.40
  HS02004792           JUNCTION     0.27     1.60    11.12     0  01:44        1.60
  HS02004799           JUNCTION     0.39     1.76    10.97     0  01:46        1.76
  HS02004802           JUNCTION     0.37     1.92    11.05     0  01:55        1.92
  HS02004807           JUNCTION     0.35     1.92    11.09     0  01:47        1.92
  HS02004817           JUNCTION     0.65     2.43    11.28     0  01:56        2.41
  HS02004824           JUNCTION     0.21     2.01    11.41     0  01:51        2.01
  HS02004830           JUNCTION     0.21     2.03    11.50     0  01:56        1.97
  HS02004837           JUNCTION     0.18     1.97    11.55     0  01:56        1.90
  HS02004842           JUNCTION     0.47     2.22    11.49     0  01:46        2.22
  HS02004848           JUNCTION     0.16     2.07    11.67     0  01:46        2.07
  HS02004852           JUNCTION     0.16     2.12    11.63     0  01:46        2.12
  HS02004856           JUNCTION     0.22     2.07    11.50     0  01:45        2.07
  HS02004862           JUNCTION     0.18     2.00    11.38     0  01:45        2.00
  HS02004870           JUNCTION     0.17     2.06    11.34     0  01:46        2.06
  HS02004876           JUNCTION     0.24     2.07    11.10     0  01:50        2.06
  HS02004881           JUNCTION     0.17     1.82    10.84     0  01:50        1.81
  HS02004901           JUNCTION     0.32     1.42    11.24     0  01:43        1.42
  WS02001211           JUNCTION     0.64     0.82     5.66     0  01:53        0.82
  WS02001212           JUNCTION     0.39     0.58     5.64     0  01:54        0.58
  WS02001213           JUNCTION     0.61     0.88     5.64     0  01:53        0.88
  WS02003059           JUNCTION     0.67     0.95     5.63     0  01:53        0.95
  WS02003060           JUNCTION     0.39     0.69     5.63     0  01:53        0.69
  WS02003066           JUNCTION     0.23     0.46     6.01     0  01:50        0.46
  WS02003067           JUNCTION     0.55     0.89     6.21     0  01:49        0.89
  WS02003069           JUNCTION     0.44     0.79     5.37     0  01:54        0.79
  WS02003072           JUNCTION     0.50     0.82     5.19     0  01:55        0.82
  WS02003073           JUNCTION     0.30     0.52     4.58     0  01:55        0.52
  WS02004138           JUNCTION     0.13     0.14     7.39     0  00:29        0.14
  WS02004139           JUNCTION     0.58     0.75     5.66     0  01:54        0.75
  WS02004401           JUNCTION     0.80     1.93     7.93     0  01:50        1.92
  WS02004402           JUNCTION     0.82     2.14     8.10     0  02:00        2.14
  WS02004403           JUNCTION     0.82     1.98     7.91     0  02:00        1.98
  WS02004404           JUNCTION     0.88     1.80     7.65     0  01:55        1.80
  WS02004405           JUNCTION     0.86     1.76     7.61     0  01:55        1.76
  WS02004406           JUNCTION     0.85     1.65     7.48     0  01:55        1.65
  WS02004407           JUNCTION     0.28     0.97     7.29     0  01:50        0.97
  WS02004409           JUNCTION     0.56     1.42     7.19     0  02:04        1.42
  WS02004410           JUNCTION     0.56     1.37     7.09     0  01:55        1.37
  WS02004411           JUNCTION     0.56     1.22     6.90     0  01:51        1.22
  WS02004412           JUNCTION     0.56     1.12     6.76     0  01:49        1.12
  WS02004413           JUNCTION     0.69     1.15     6.62     0  01:49        1.15
  WS02006109           JUNCTION     1.05     2.64     9.26     0  01:44        2.64
  WS02006110           JUNCTION     0.97     2.42     9.00     0  01:50        2.41
  WS02006111           JUNCTION     0.49     1.81     8.51     0  01:50        1.80
  WS02006112           JUNCTION     1.03     2.46     8.34     0  01:50        2.46
  WS02006113           JUNCTION     0.55     1.87     8.76     0  01:50        1.87
  WS02006115           JUNCTION     0.74     2.03     8.17     0  01:50        2.03
  WS02006116           JUNCTION     0.80     2.02     8.06     0  01:49        2.02
  WS02006228           JUNCTION     1.12     3.03     9.68     0  01:55        3.03
  WS02006229           JUNCTION     1.14     3.25     9.94     0  01:56        3.25
  WS02006230           JUNCTION     1.05     2.65     9.39     0  01:31        2.65
  WS02006231           JUNCTION     0.77     2.24     9.36     0  01:31        2.24
  WS02006232           JUNCTION     0.85     2.18     9.22     0  01:31        2.18
  WS02006234           JUNCTION     0.72     1.96     9.12     0  01:31        1.96
  WS02006235           JUNCTION     0.73     2.00     9.16     0  01:31        1.99
  WS02006238           JUNCTION     0.75     2.15     9.29     0  02:00        2.15
  WS02006239           JUNCTION     0.68     2.03     9.24     0  01:31        1.92
  WS02006240           JUNCTION     0.63     2.10     9.39     0  01:31        1.77
  WS02006242           JUNCTION     0.65     1.55     8.82     0  00:05        1.55
  WS02006243           JUNCTION     0.54     1.48     8.90     0  01:31        1.39
  WS02006245           JUNCTION     0.52     1.56     9.04     0  01:31        1.56
  WS02006247           JUNCTION     0.52     1.47     8.97     0  01:26        1.31
  WS02006248           JUNCTION     0.46     1.10     8.69     0  00:05        1.10
  WS02006249           JUNCTION     0.48     1.09     8.69     0  00:05        1.09
  WS02006251           JUNCTION     0.61     2.21     9.88     0  02:46        2.15
  WS02006252           JUNCTION     0.40     1.50     9.74     0  00:00        1.50
  WS02006253           JUNCTION     0.70     3.09    10.73     0  01:50        3.08
  WS02006256           JUNCTION     1.04     2.35     9.28     0  00:00        2.35
  WS02006280           JUNCTION     0.35     1.81    10.08     0  02:00        1.81
  WS02006284           JUNCTION     0.61     1.96    10.36     0  01:56        1.95
  WS02006287           JUNCTION     0.35     1.78    10.74     0  01:55        1.78
  WSF200               JUNCTION     0.23     0.53     5.76     0  01:51        0.53
  YS02001580           JUNCTION     0.24     0.98     9.52     0  01:33        0.79
  YS02001583           JUNCTION     0.28     1.14     9.64     0  02:00        1.14
  YS02001586           JUNCTION     0.41     1.13     9.30     0  01:33        1.13
  YS02001590           JUNCTION     0.54     1.40     9.26     0  01:56        1.40
  YS02001593           JUNCTION     0.48     1.38     9.24     0  02:00        1.38
  YS02001596           JUNCTION     0.63     1.80     9.22     0  02:29        1.80
  YS02001600           JUNCTION     0.74     1.87     9.00     0  01:56        1.87
  YS02001601           JUNCTION     0.92     2.06     8.90     0  01:32        2.06
  YS02001602           JUNCTION     0.81     1.87     8.77     0  01:42        1.87
  YS02001605           JUNCTION     0.75     1.78     8.68     0  02:00        1.78
  YS02001607           JUNCTION     0.69     1.68     8.53     0  01:56        1.68
  YS02001610           JUNCTION     0.73     1.68     8.48     0  01:43        1.68
  YS02001613           JUNCTION     0.69     1.70     8.54     0  01:55        1.70
  YS02001616           JUNCTION     0.62     1.61     8.52     0  01:55        1.61
  YS02001619           JUNCTION     0.60     1.61     8.54     0  01:55        1.61
  YS02001622           JUNCTION     0.59     1.62     8.52     0  01:55        1.62
  YS02001625           JUNCTION     0.84     1.78     8.38     0  01:43        1.78
  YS02001629           JUNCTION     0.74     1.85     8.40     0  01:52        1.85
  YS02001633           JUNCTION     0.82     2.08     8.53     0  01:56        2.08
  YS02001641           JUNCTION     0.76     2.01     8.45     0  02:00        2.01
  YS02001644           JUNCTION     0.74     1.92     8.35     0  01:53        1.92
  YS02001647           JUNCTION     0.51     1.90     8.51     0  01:56        1.90
  YS02001649           JUNCTION     0.56     2.05     8.44     0  01:56        2.05
  YS02001652           JUNCTION     0.45     2.15     8.75     0  02:14        2.15
  YS02001655           JUNCTION     0.36     2.20     9.05     0  02:09        2.20
  YS02001658           JUNCTION     0.29     2.30     9.44     0  02:09        2.30
  YS02001661           JUNCTION     0.30     2.46     9.86     0  02:09        2.46
  YS02001664           JUNCTION     0.17     2.31    10.23     0  02:09        2.31
  YS02001745           JUNCTION     0.16     2.35     9.87     0  02:09        2.35
  YS02001748           JUNCTION     0.24     2.27     9.35     0  02:09        2.27
  YS02001751           JUNCTION     0.28     2.20     9.08     0  02:09        2.20
  YS02001754           JUNCTION     0.37     2.20     8.81     0  02:09        2.20
  YS02001757           JUNCTION     0.56     2.21     8.47     0  01:56        2.21
  YS02001759           JUNCTION     0.51     2.21     8.57     0  01:56        2.21
  YS02001762           JUNCTION     0.50     2.15     8.55     0  01:56        2.15
  YS02001765           JUNCTION     0.47     2.10     8.55     0  01:56        2.10
  YS02001767           JUNCTION     0.46     2.03     8.52     0  01:56        2.03
  YS02001770           JUNCTION     0.48     1.95     8.44     0  01:55        1.95
  YS02001774           JUNCTION     0.54     2.05     8.47     0  01:55        2.05
  YS02001779           JUNCTION     0.36     1.68     8.37     0  01:55        1.68
  YS02001783           JUNCTION     0.44     1.55     7.69     0  02:09        1.55
  YS02001784           JUNCTION     0.43     1.64     7.71     0  02:29        1.35
  YS02001786           JUNCTION     0.35     1.00     7.03     0  02:10        0.98
  YS02001788           JUNCTION     0.25     0.69     6.67     0  02:14        0.68
  YS02001790           JUNCTION     0.30     0.79     6.43     0  02:14        0.76
  YS02001791           JUNCTION     0.18     0.47     5.94     0  02:14        0.45
  YS02001793           JUNCTION     0.10     0.39     5.22     0  02:14        0.36
  YS02001882           JUNCTION     0.56     1.83     8.55     0  02:09        1.83
  YS02001884           JUNCTION     0.65     1.93     8.55     0  02:00        1.93
  YS02001887           JUNCTION     0.72     2.00     8.54     0  02:00        2.00
  YS02001890           JUNCTION     0.74     1.81     8.32     0  01:52        1.81
  YS02001895           JUNCTION     0.51     1.75     8.50     0  02:29        1.75
  YS02001898           JUNCTION     0.52     1.65     8.39     0  02:00        1.65
  YS02001901           JUNCTION     0.63     1.87     8.48     0  02:00        1.87
  YS02001904           JUNCTION     0.61     1.85     8.48     0  02:00        1.85
  YS02001907           JUNCTION     0.93     1.96     8.25     0  01:45        1.96
  YS02001910           JUNCTION     0.75     2.10     8.61     0  02:00        2.10
  YS02001915           JUNCTION     0.58     2.00     8.72     0  02:00        2.00
  YS02001918           JUNCTION     0.40     1.81     8.88     0  02:08        1.81
  YS02001920           JUNCTION     0.48     2.04     9.05     0  02:09        2.04
  YS02001923           JUNCTION     0.33     1.97     9.23     0  02:09        1.97
  YS02001926           JUNCTION     0.33     1.90     9.35     0  02:09        1.90
  YS02001929           JUNCTION     0.23     1.78     9.47     0  02:09        1.78
  YS02006553           JUNCTION     0.93     2.19     8.47     0  02:09        2.19
  YS02006556           JUNCTION     0.91     2.39     8.70     0  02:00        2.39
  YS02006558           JUNCTION     0.95     2.50     8.77     0  02:00        2.50
  YS02006561           JUNCTION     0.29     1.26     7.92     0  02:09        1.26
  YS02163301           JUNCTION     0.76     2.03     8.55     0  02:04        2.03
  YS02163601           JUNCTION     0.84     2.08     8.48     0  01:56        2.08
  YS02164001           JUNCTION     0.76     2.10     8.56     0  02:29        2.10
  YSB1154              JUNCTION     0.49     2.00    11.06     0  01:47        2.00
  YSB1171              JUNCTION     0.64     1.95    10.85     0  01:44        1.95
  YSB1174              JUNCTION     0.44     1.95    11.06     0  02:00        1.83
  YSB6556              JUNCTION     0.39     1.77    10.94     0  01:56        1.75
  CC-1                 OUTFALL      0.00     0.00     0.00     0  00:00        0.00
  CC-2                 OUTFALL      0.00     0.00     0.00     0  00:00        0.00
  JK-1                 OUTFALL      0.00     0.00     0.00     0  00:00        0.00
  JK-2                 OUTFALL      0.00     0.00     0.00     0  00:00        0.00
  WSC                  OUTFALL      0.30     0.52     1.19     0  01:55        0.52
  CC-storage           STORAGE      0.57     1.01     6.51     0  01:45        1.01
  JK-storage           STORAGE      1.81     4.29     5.09     0  02:15        4.28
  XR-storage           STORAGE      7.85     9.26     7.26     0  08:00        9.26
  
  
  *******************
  Node Inflow Summary
  *******************
  
  -------------------------------------------------------------------------------------------------
                                  Maximum  Maximum                  Lateral       Total        Flow
                                  Lateral    Total  Time of Max      Inflow      Inflow     Balance
                                   Inflow   Inflow   Occurrence      Volume      Volume       Error
  Node                 Type           LPS      LPS  days hr:min    10^6 ltr    10^6 ltr     Percent
  -------------------------------------------------------------------------------------------------
  HS02004478           JUNCTION      0.00  2307.02     0  01:48           0        9.03      -0.008
  HS02004479           JUNCTION      0.00   462.50     0  01:45           0       0.835       0.111
  HS02004480           JUNCTION      0.00  2148.81     0  01:44           0         6.8       0.040
  HS02004770           JUNCTION   1761.21  1761.21     0  01:50        2.99        3.23       0.088
  HS02004777           JUNCTION      0.03   789.44     0  01:43    0.000864        1.95       0.261
  HS02004785           JUNCTION      0.15   790.65     0  01:43     0.00432        1.95       0.039
  HS02004788           JUNCTION    611.36   905.68     0  01:43        1.08        3.02      -0.002
  HS02004792           JUNCTION   2246.33  3073.48     0  01:51        4.17         7.2       0.005
  HS02004799           JUNCTION    345.78  1784.64     0  01:44       0.511        6.17       0.049
  HS02004802           JUNCTION      0.00  1233.37     0  01:53           0        2.39       0.171
  HS02004807           JUNCTION    447.50  1609.75     0  01:51       0.653        2.52       0.182
  HS02004817           JUNCTION      0.60  1180.11     0  01:51      0.0173        1.92       0.901
  HS02004824           JUNCTION    672.65  1179.43     0  01:51        1.36        2.14       0.027
  HS02004830           JUNCTION      0.15   688.14     0  01:44     0.00432        1.02       0.161
  HS02004837           JUNCTION    438.01   901.46     0  01:44        0.85        1.32       0.148
  HS02004842           JUNCTION      0.00   886.01     0  01:44           0       0.779       1.753
  HS02004848           JUNCTION    623.73  1130.69     0  01:44         1.4        1.98       0.067
  HS02004852           JUNCTION      0.00  1076.05     0  01:45           0        1.79       0.035
  HS02004856           JUNCTION    177.03  1166.00     0  01:45       0.261        2.05       0.076
  HS02004862           JUNCTION    289.54  1220.51     0  01:45       0.597        2.65      -0.018
  HS02004870           JUNCTION    242.96  1224.79     0  01:51       0.357           3       0.043
  HS02004876           JUNCTION    273.99  1498.52     0  01:50       0.441        3.45       0.030
  HS02004881           JUNCTION    134.87  1633.10     0  01:50       0.194        3.66       0.024
  HS02004901           JUNCTION    413.53   655.38     0  01:50       0.636       0.997       0.172
  WS02001211           JUNCTION      7.35   206.79     0  03:11       0.212        5.44       0.611
  WS02001212           JUNCTION      0.00   215.85     0  03:11           0        5.41       0.291
  WS02001213           JUNCTION      0.00   221.19     0  03:11           0        5.39       0.331
  WS02003059           JUNCTION      0.00   228.58     0  03:12           0        5.38       0.595
  WS02003060           JUNCTION     16.53  1528.93     0  01:53       0.476        13.9       0.106
  WS02003066           JUNCTION      0.00  1328.33     0  01:50           0        8.05       0.018
  WS02003067           JUNCTION      0.00  1328.24     0  01:50           0        8.06       0.054
  WS02003069           JUNCTION      0.32  1528.66     0  01:54     0.00922        13.9       0.111
  WS02003072           JUNCTION      0.00  1528.54     0  01:54           0        13.8       0.151
  WS02003073           JUNCTION      1.82  1530.32     0  01:55      0.0524        13.9       0.155
  WS02004138           JUNCTION      0.00   380.00     0  00:00           0        5.25       0.054
  WS02004139           JUNCTION      0.32   190.99     0  00:29     0.00924        5.26       0.507
  WS02004401           JUNCTION      0.00  1327.69     0  01:50           0        8.16       0.132
  WS02004402           JUNCTION      0.00  1327.92     0  01:49           0        8.15       0.134
  WS02004403           JUNCTION      0.00  1328.12     0  01:50           0        8.14       0.128
  WS02004404           JUNCTION      0.16  1328.57     0  01:50     0.00467        8.14       0.107
  WS02004405           JUNCTION      0.04  1329.22     0  01:50      0.0011        8.13       0.160
  WS02004406           JUNCTION      0.00  1328.28     0  01:50           0        8.12       0.262
  WS02004407           JUNCTION      0.00  1328.75     0  01:50           0         8.1       0.018
  WS02004409           JUNCTION      0.00  1328.14     0  01:50           0        8.09       0.038
  WS02004410           JUNCTION      0.00  1328.34     0  01:50           0        8.09       0.060
  WS02004411           JUNCTION      0.00  1328.61     0  01:50           0        8.09       0.075
  WS02004412           JUNCTION      0.00  1328.10     0  01:50           0        8.08       0.097
  WS02004413           JUNCTION      0.00  1328.21     0  01:50           0        8.07       0.172
  WS02006109           JUNCTION      1.23  1290.18     0  01:48      0.0354        7.94       0.127
  WS02006110           JUNCTION      0.00  1120.87     0  02:12           0        7.64       0.095
  WS02006111           JUNCTION      0.00  1120.73     0  02:12           0        7.63       0.019
  WS02006112           JUNCTION    359.35  1328.04     0  01:50       0.567        8.19       0.242
  WS02006113           JUNCTION      0.00  1120.78     0  02:12           0        7.63       0.029
  WS02006115           JUNCTION      0.00  1327.57     0  01:50           0        8.17       0.090
  WS02006116           JUNCTION      0.00  1327.68     0  01:49           0        8.17       0.038
  WS02006228           JUNCTION      0.00  1289.27     0  01:48           0        7.91       0.076
  WS02006229           JUNCTION      0.00  2308.02     0  01:48           0        10.4       0.071
  WS02006230           JUNCTION     10.28  1027.78     0  01:48       0.296        3.95       0.239
  WS02006231           JUNCTION      0.00   457.09     0  01:56           0        2.64      -0.103
  WS02006232           JUNCTION      0.00   461.68     0  00:07           0        2.64       0.173
  WS02006234           JUNCTION      0.00   532.42     0  00:06           0        2.63      -0.250
  WS02006235           JUNCTION      0.00   536.52     0  00:06           0        2.63       0.278
  WS02006238           JUNCTION      0.00   538.67     0  00:06           0        2.44      -0.368
  WS02006239           JUNCTION      0.00   546.92     0  00:06           0         2.4      -0.360
  WS02006240           JUNCTION      0.00   595.70     0  00:06           0        2.39      -0.059
  WS02006242           JUNCTION      0.00   677.22     0  01:31           0        2.39      -0.173
  WS02006243           JUNCTION      0.00   724.32     0  01:31           0        1.98      -0.477
  WS02006245           JUNCTION      0.00   772.18     0  01:31           0           2       0.916
  WS02006247           JUNCTION      0.00   860.31     0  01:26           0           2      -0.175
  WS02006248           JUNCTION      0.00   910.20     0  01:26           0        2.24      -0.314
  WS02006249           JUNCTION      0.00  1371.83     0  01:50           0        5.43       0.320
  WS02006251           JUNCTION      0.08  1677.05     0  01:50     0.00222        5.74       0.090
  WS02006252           JUNCTION      0.00  2009.00     0  02:00           0        4.66      -0.638
  WS02006253           JUNCTION     44.14  1676.74     0  01:50      0.0604        3.87      -0.041
  WS02006256           JUNCTION      0.00  1500.00     0  00:20           0        1.82       1.966
  WS02006280           JUNCTION      0.00  2308.55     0  01:55           0        9.02       0.007
  WS02006284           JUNCTION      0.10  2309.05     0  01:55     0.00275        9.02      -0.008
  WS02006287           JUNCTION      0.00  2307.47     0  01:48           0        9.01       0.011
  WSF200               JUNCTION      0.00  1328.18     0  01:50           0        8.05       0.009
  YS02001580           JUNCTION      0.00    54.17     0  01:33           0     0.00429       2.596
  YS02001583           JUNCTION      0.00    88.39     0  01:33           0      0.0162      -2.373
  YS02001586           JUNCTION   3750.76  3750.79     0  02:13        5.84        5.85       0.019
  YS02001590           JUNCTION      0.00   321.72     0  02:29           0        2.14      -0.036
  YS02001593           JUNCTION      0.00   319.74     0  02:29           0        2.14       0.011
  YS02001596           JUNCTION      0.00   318.22     0  02:00           0        2.14       0.000
  YS02001600           JUNCTION      0.00   318.53     0  01:55           0        2.14       0.017
  YS02001601           JUNCTION   5754.82  6072.44     0  02:13        7.51        9.64       0.010
  YS02001602           JUNCTION      0.00   512.71     0  03:00           0         3.2       0.013
  YS02001605           JUNCTION      0.00   512.95     0  03:00           0        2.96       0.015
  YS02001607           JUNCTION      0.00   513.08     0  03:00           0        2.96       0.059
  YS02001610           JUNCTION      0.00   958.42     0  02:10           0        4.35       0.063
  YS02001613           JUNCTION      0.00   622.56     0  02:10           0         3.2       0.045
  YS02001616           JUNCTION      0.00   624.79     0  02:29           0        3.21       0.006
  YS02001619           JUNCTION   6514.63  6514.63     0  02:13        9.27        11.1      -0.002
  YS02001622           JUNCTION      0.00  1056.19     0  02:29           0        6.66      -0.001
  YS02001625           JUNCTION      0.00  1505.51     0  02:14           0        7.56       0.129
  YS02001629           JUNCTION      0.00  1139.05     0  02:14           0        5.54       0.015
  YS02001633           JUNCTION   4284.58  4284.58     0  02:13        5.66        9.57       0.034
  YS02001641           JUNCTION      0.00  1333.60     0  02:47           0        7.09       0.043
  YS02001644           JUNCTION   3809.19  5560.85     0  02:13         4.8        12.5       0.026
  YS02001647           JUNCTION      0.00  1667.62     0  01:43           0        8.37       0.007
  YS02001649           JUNCTION      0.00  2447.13     0  02:13           0        12.1       0.005
  YS02001652           JUNCTION      0.00  2429.34     0  02:14           0        4.34      -0.026
  YS02001655           JUNCTION      0.15  2731.44     0  02:15     0.00443        4.45       0.016
  YS02001658           JUNCTION      0.00  2783.86     0  02:15           0        4.46      -0.018
  YS02001661           JUNCTION      0.00  2783.84     0  02:15           0        4.46       0.010
  YS02001664           JUNCTION   3645.42  3645.42     0  02:13        4.61        4.61      -0.008
  YS02001745           JUNCTION   2193.83  2193.83     0  02:13        2.62        2.62       0.006
  YS02001748           JUNCTION      0.04  2194.56     0  02:13      0.0013        2.62      -0.031
  YS02001751           JUNCTION      0.01  2195.70     0  02:13    0.000317        2.62       0.027
  YS02001754           JUNCTION      0.26  2194.55     0  02:13     0.00749        2.63      -0.050
  YS02001757           JUNCTION      0.00  3762.86     0  02:13           0        19.3       0.001
  YS02001759           JUNCTION   3054.63  3054.63     0  02:13        3.76        6.26      -0.002
  YS02001762           JUNCTION      0.00   822.13     0  02:28           0        2.85       0.009
  YS02001765           JUNCTION      0.00   821.51     0  02:28           0        2.85       0.006
  YS02001767           JUNCTION      0.54   821.10     0  02:28      0.0154        2.85       0.009
  YS02001770           JUNCTION   4460.22  5176.39     0  02:13        5.53        5.92      -0.009
  YS02001774           JUNCTION      0.00   852.16     0  02:16           0        1.27       0.091
  YS02001779           JUNCTION      0.01   851.79     0  02:17    0.000144        1.23      -0.011
  YS02001783           JUNCTION      0.00  1321.54     0  02:10           0         6.8       0.001
  YS02001784           JUNCTION      1.06  1323.71     0  02:13      0.0305        6.83       0.009
  YS02001786           JUNCTION      0.06  1322.82     0  02:13     0.00162        6.84       0.007
  YS02001788           JUNCTION      0.07  1323.14     0  02:13     0.00204        6.84       0.004
  YS02001790           JUNCTION      0.15  1339.92     0  02:14     0.00446        6.84       0.025
  YS02001791           JUNCTION      0.00  1418.45     0  02:14           0        6.84      -0.044
  YS02001793           JUNCTION      0.00  1437.33     0  02:14           0        6.84       0.004
  YS02001882           JUNCTION      0.00    28.04     0  01:19           0      0.0161       4.500
  YS02001884           JUNCTION      0.00    43.81     0  01:39           0      0.0527       5.058
  YS02001887           JUNCTION   3162.06  3162.06     0  02:13        3.81        3.85       0.110
  YS02001890           JUNCTION      0.00  2052.03     0  02:15           0        3.56       0.143
  YS02001895           JUNCTION      0.00   522.25     0  02:04           0        2.19       0.090
  YS02001898           JUNCTION      0.00   518.53     0  02:14           0        2.19       0.006
  YS02001901           JUNCTION      0.00   529.44     0  02:00           0        2.19       0.149
  YS02001904           JUNCTION      0.00   532.69     0  02:00           0         2.2       0.132
  YS02001907           JUNCTION      0.00  4671.72     0  02:13           0        9.47       0.192
  YS02001910           JUNCTION      0.00  1993.25     0  02:17           0        5.86       0.118
  YS02001915           JUNCTION   4163.28  5384.96     0  02:13        5.03        7.58       0.019
  YS02001918           JUNCTION      0.00  1681.78     0  02:14           0        2.75       0.006
  YS02001920           JUNCTION      2.87  1681.90     0  02:14      0.0827        2.75       0.035
  YS02001923           JUNCTION      0.04  1679.17     0  02:14     0.00109        2.67      -0.007
  YS02001926           JUNCTION      0.05  1678.91     0  02:13      0.0015        2.67       0.012
  YS02001929           JUNCTION   2097.26  2097.26     0  02:13        2.73        2.73      -0.005
  YS02006553           JUNCTION      0.00  2160.95     0  02:14           0        4.39       0.272
  YS02006556           JUNCTION      0.00  2161.60     0  02:14           0        4.41       0.180
  YS02006558           JUNCTION   4529.14  4529.14     0  02:13        5.47        8.43       0.036
  YS02006561           JUNCTION      0.00  1321.49     0  02:13           0         6.8       0.001
  YS02163301           JUNCTION      0.00  1138.95     0  02:16           0        5.55       0.033
  YS02163601           JUNCTION      0.11  1331.90     0  02:47     0.00317        7.09       0.074
  YS02164001           JUNCTION      0.00  1332.49     0  02:47           0        7.09       0.041
  YSB1154              JUNCTION    443.93   443.93     0  01:50       0.701       0.701       0.221
  YSB1171              JUNCTION      0.00  1041.82     0  01:50           0        1.35       0.483
  YSB1174              JUNCTION    376.56   376.56     0  01:49       0.523       0.524       0.247
  YSB6556              JUNCTION      0.00   444.09     0  01:50           0       0.702       0.180
  CC-1                 OUTFALL       0.00  3415.00     0  01:15           0        7.72       0.000
  CC-2                 OUTFALL       0.00  3415.00     0  00:05           0        7.96       0.000
  JK-1                 OUTFALL       0.00  5000.00     0  01:25           0         3.6       0.000
  JK-2                 OUTFALL       0.00  5000.00     0  01:25           0        1.55       0.000
  WSC                  OUTFALL       0.00  1530.13     0  01:55           0        13.9       0.000
  CC-storage           STORAGE       0.00  3757.06     0  02:12           0        21.5      -0.087
  JK-storage           STORAGE       0.00  1722.37     0  02:10           0        6.99      -0.302
  XR-storage           STORAGE     200.00   200.00     0  00:00        5.76        6.36       0.001
  
  
  **********************
  Node Surcharge Summary
  **********************
  
  Surcharging occurs when water rises above the top of the highest conduit.
  ---------------------------------------------------------------------
                                               Max. Height   Min. Depth
                                   Hours       Above Crown    Below Rim
  Node                 Type      Surcharged         Meters       Meters
  ---------------------------------------------------------------------
  HS02004478           JUNCTION        0.54          0.793        0.147
  HS02004479           JUNCTION        0.68          1.050        0.000
  HS02004480           JUNCTION        0.72          0.952        0.148
  HS02004770           JUNCTION        0.63          0.720        0.000
  HS02004777           JUNCTION        0.63          0.780        0.000
  HS02004785           JUNCTION        0.58          0.790        0.000
  HS02004788           JUNCTION        0.57          0.720        0.000
  HS02004792           JUNCTION        0.69          0.900        0.000
  HS02004799           JUNCTION        0.81          1.060        0.000
  HS02004802           JUNCTION        0.72          1.210        0.000
  HS02004807           JUNCTION        0.70          1.220        0.000
  HS02004817           JUNCTION        1.32          1.729        0.011
  HS02004824           JUNCTION        0.56          1.310        0.000
  HS02004830           JUNCTION        0.54          1.330        0.000
  HS02004837           JUNCTION        0.49          1.269        0.071
  HS02004842           JUNCTION        0.63          1.520        0.000
  HS02004848           JUNCTION        0.46          1.370        0.000
  HS02004852           JUNCTION        0.49          1.420        0.000
  HS02004856           JUNCTION        0.47          1.300        0.000
  HS02004862           JUNCTION        0.51          1.300        0.000
  HS02004870           JUNCTION        0.54          1.356        0.044
  HS02004876           JUNCTION        0.63          1.369        0.191
  HS02004881           JUNCTION        0.61          1.116        0.334
  HS02004901           JUNCTION        0.63          0.720        0.000
  WS02004401           JUNCTION        1.58          0.931        0.729
  WS02004402           JUNCTION        1.59          1.136        0.604
  WS02004403           JUNCTION        1.60          0.983        1.047
  WS02004404           JUNCTION        1.66          0.796        1.984
  WS02004405           JUNCTION        1.64          0.765        2.035
  WS02004406           JUNCTION        1.63          0.651        1.799
  WS02004409           JUNCTION        1.10          0.424        1.936
  WS02004410           JUNCTION        1.01          0.372        2.168
  WS02004411           JUNCTION        0.96          0.224        2.306
  WS02004412           JUNCTION        0.84          0.120        2.190
  WS02004413           JUNCTION        1.40          0.153        2.047
  WS02006109           JUNCTION        1.94          1.820        0.000
  WS02006110           JUNCTION        1.75          1.506        0.344
  WS02006111           JUNCTION        1.32          0.996        0.874
  WS02006112           JUNCTION        1.80          1.461        0.219
  WS02006113           JUNCTION        1.36          1.069        0.861
  WS02006115           JUNCTION        1.55          1.024        1.226
  WS02006116           JUNCTION        1.55          0.964        1.326
  WS02006228           JUNCTION        1.93          2.200        0.000
  WS02006229           JUNCTION        1.00          1.070        0.000
  WS02006230           JUNCTION        1.63          1.570        0.000
  WS02006231           JUNCTION        1.63          1.530        0.000
  WS02006232           JUNCTION        1.78          1.480        0.000
  WS02006234           JUNCTION        1.63          1.240        0.000
  WS02006235           JUNCTION        1.64          1.290        0.000
  WS02006238           JUNCTION        1.66          1.430        0.000
  WS02006239           JUNCTION        1.62          1.290        0.000
  WS02006240           JUNCTION        1.61          1.390        0.000
  WS02006242           JUNCTION        1.65          0.820        0.000
  WS02006243           JUNCTION        1.61          0.770        0.000
  WS02006245           JUNCTION        1.61          0.850        0.000
  WS02006247           JUNCTION        1.63          0.760        0.000
  WS02006248           JUNCTION        1.59          0.380        0.000
  WS02006249           JUNCTION        1.62          0.390        0.000
  WS02006251           JUNCTION        1.30          1.180        0.000
  WS02006252           JUNCTION        1.58          1.100        0.000
  WS02006253           JUNCTION        1.36          2.051        0.429
  WS02006256           JUNCTION        6.47          2.050        0.000
  WS02006280           JUNCTION        0.83          0.758        0.022
  WS02006284           JUNCTION        0.74          0.677        0.123
  WS02006287           JUNCTION        0.65          0.782        0.108
  YS02001580           JUNCTION        1.42          0.382        0.068
  YS02001583           JUNCTION        1.42          0.500        0.000
  YS02001586           JUNCTION        1.52          0.510        0.000
  YS02001590           JUNCTION        1.60          0.750        0.000
  YS02001593           JUNCTION        1.59          0.755        0.085
  YS02001596           JUNCTION        1.71          1.070        0.000
  YS02001600           JUNCTION        1.82          1.190        0.000
  YS02001601           JUNCTION        2.04          1.440        0.000
  YS02001602           JUNCTION        1.97          1.270        0.000
  YS02001605           JUNCTION        1.93          1.180        0.000
  YS02001607           JUNCTION        1.53          0.680        0.000
  YS02001610           JUNCTION        1.55          0.680        0.000
  YS02001613           JUNCTION        1.52          0.700        0.000
  YS02001616           JUNCTION        1.49          0.610        0.000
  YS02001619           JUNCTION        1.47          0.610        0.000
  YS02001622           JUNCTION        1.47          0.620        0.000
  YS02001625           JUNCTION        1.64          0.780        0.000
  YS02001629           JUNCTION        1.29          0.470        0.000
  YS02001633           JUNCTION        1.64          1.060        0.000
  YS02001641           JUNCTION        1.54          1.013        0.087
  YS02001644           JUNCTION        1.48          0.920        0.000
  YS02001647           JUNCTION        1.04          0.900        0.000
  YS02001649           JUNCTION        1.09          1.050        0.000
  YS02001652           JUNCTION        0.94          1.122        0.008
  YS02001655           JUNCTION        0.80          1.200        0.000
  YS02001658           JUNCTION        0.62          1.300        0.000
  YS02001661           JUNCTION        0.38          1.390        0.000
  YS02001664           JUNCTION        0.23          1.310        0.000
  YS02001745           JUNCTION        0.18          1.350        0.000
  YS02001748           JUNCTION        0.46          1.190        0.000
  YS02001751           JUNCTION        0.64          1.200        0.000
  YS02001754           JUNCTION        0.80          1.150        0.000
  YS02001757           JUNCTION        1.06          1.210        0.000
  YS02001759           JUNCTION        0.99          1.210        0.000
  YS02001762           JUNCTION        0.98          1.150        0.000
  YS02001765           JUNCTION        0.96          1.100        0.000
  YS02001767           JUNCTION        0.94          1.030        0.000
  YS02001770           JUNCTION        0.93          0.920        0.000
  YS02001774           JUNCTION        0.99          1.050        0.000
  YS02001779           JUNCTION        0.84          0.680        0.000
  YS02001783           JUNCTION        1.24          0.747        0.853
  YS02001784           JUNCTION        1.20          0.840        0.650
  YS02001786           JUNCTION        1.04          0.195        1.235
  YS02001882           JUNCTION        1.15          0.830        0.000
  YS02001884           JUNCTION        1.17          0.870        0.000
  YS02001887           JUNCTION        1.22          0.950        0.000
  YS02001890           JUNCTION        1.25          0.760        0.000
  YS02001895           JUNCTION        1.13          0.750        0.000
  YS02001898           JUNCTION        1.12          0.624        0.116
  YS02001901           JUNCTION        1.20          0.870        0.000
  YS02001904           JUNCTION        1.19          0.850        0.000
  YS02001907           JUNCTION        1.59          0.950        0.000
  YS02001910           JUNCTION        1.29          1.100        0.000
  YS02001915           JUNCTION        1.15          1.000        0.000
  YS02001918           JUNCTION        1.01          0.810        0.000
  YS02001920           JUNCTION        1.04          1.039        0.101
  YS02001923           JUNCTION        0.48          0.763        0.057
  YS02001926           JUNCTION        0.52          0.900        0.000
  YS02001929           JUNCTION        0.35          0.780        0.000
  YS02006553           JUNCTION        1.61          1.190        0.000
  YS02006556           JUNCTION        1.44          1.350        0.000
  YS02006558           JUNCTION        1.42          1.400        0.000
  YS02006561           JUNCTION        0.97          0.463        0.687
  YS02163301           JUNCTION        1.62          1.030        0.000
  YS02163601           JUNCTION        1.67          1.080        0.000
  YS02164001           JUNCTION        1.55          1.100        0.000
  YSB1154              JUNCTION        0.94          1.300        0.100
  YSB1171              JUNCTION        0.95          1.100        0.000
  YSB1174              JUNCTION        0.84          1.250        0.000
  YSB6556              JUNCTION        0.78          1.070        0.030
  
  
  *********************
  Node Flooding Summary
  *********************
  
  Flooding refers to all water that overflows a node, whether it ponds or not.
  --------------------------------------------------------------------------
                                                             Total   Maximum
                                 Maximum   Time of Max       Flood    Ponded
                        Hours       Rate    Occurrence      Volume     Depth
  Node                 Flooded       LPS   days hr:min    10^6 ltr    Meters
  --------------------------------------------------------------------------
  HS02004479              0.01      1.42      0  02:00       0.000     0.000
  HS02004770              0.41   1296.45      0  01:50       0.913     0.000
  HS02004777              0.01     63.50      0  01:43       0.001     0.000
  HS02004785              0.01     77.09      0  01:43       0.000     0.000
  HS02004788              0.01    325.12      0  01:43       0.002     0.000
  HS02004792              0.41   1931.22      0  01:51       1.531     0.000
  HS02004799              0.19    219.57      0  01:48       0.085     0.000
  HS02004802              0.01      0.70      0  01:55       0.000     0.000
  HS02004807              0.12    378.65      0  01:51       0.100     0.000
  HS02004824              0.01     19.54      0  01:56       0.000     0.000
  HS02004830              0.01     14.11      0  01:56       0.000     0.000
  HS02004842              0.01     67.19      0  01:56       0.001     0.000
  HS02004848              0.01     98.29      0  01:46       0.000     0.000
  HS02004852              0.01     11.66      0  01:46       0.000     0.000
  HS02004856              0.01    529.73      0  01:45       0.004     0.000
  HS02004862              0.01    349.37      0  01:45       0.001     0.000
  HS02004901              0.49    655.38      0  01:50       0.763     0.000
  WS02006109              0.47    320.68      0  01:50       0.293     0.000
  WS02006228              0.01      3.89      0  01:55       0.000     0.000
  WS02006229              0.01      1.07      0  01:56       0.000     0.000
  WS02006230              0.75    575.10      0  01:48       1.046     0.000
  WS02006231              0.01    142.04      0  01:31       0.000     0.000
  WS02006232              0.19     56.19      0  01:31       0.000     0.000
  WS02006234              0.82    252.88      0  01:31       0.265     0.000
  WS02006235              0.01    274.15      0  01:31       0.001     0.000
  WS02006238              0.01      0.52      0  02:00       0.000     0.000
  WS02006239              0.01    225.67      0  01:31       0.000     0.000
  WS02006240              0.01    333.36      0  01:31       0.000     0.000
  WS02006242              0.98    326.47      0  01:31       0.401     0.000
  WS02006243              0.01    128.79      0  01:31       0.000     0.000
  WS02006245              0.01    159.23      0  01:31       0.000     0.000
  WS02006247              0.01    275.16      0  01:26       0.001     0.000
  WS02006248              1.30    339.01      0  02:05       1.294     0.000
  WS02006249              1.42   1311.46      0  01:50       4.223     0.000
  WS02006251              0.01    468.81      0  03:00       0.001     0.000
  WS02006252              0.91   2008.59      0  02:00       2.808     0.000
  WS02006256              0.96   1458.59      0  03:20       1.361     0.000
  YS02001583              0.01      0.29      0  02:00       0.000     0.000
  YS02001586              1.25   3431.43      0  02:13       3.704     0.000
  YS02001590              0.01      0.18      0  02:29       0.000     0.000
  YS02001596              0.01      0.14      0  02:29       0.000     0.000
  YS02001600              0.01     18.38      0  02:29       0.000     0.000
  YS02001601              1.46   5672.31      0  02:13       6.442     0.000
  YS02001602              1.11     64.75      0  02:00       0.238     0.000
  YS02001605              0.01      4.27      0  02:29       0.000     0.000
  YS02001607              0.01      9.44      0  02:00       0.000     0.000
  YS02001610              1.06    958.36      0  02:10       2.534     0.000
  YS02001613              0.01      1.28      0  01:55       0.000     0.000
  YS02001616              0.18     20.37      0  02:29       0.001     0.000
  YS02001619              0.47   4840.78      0  02:13       3.027     0.000
  YS02001622              0.01      0.90      0  01:55       0.000     0.000
  YS02001625              0.95   1505.28      0  02:14       3.655     0.000
  YS02001629              0.53    686.86      0  02:14       0.740     0.000
  YS02001633              0.22   2239.50      0  02:13       0.833     0.000
  YS02001644              0.59   5559.43      0  02:13       4.691     0.000
  YS02001647              0.01      1.20      0  02:00       0.000     0.000
  YS02001649              0.17   1600.21      0  02:13       0.615     0.000
  YS02001655              0.12    303.27      0  02:14       0.111     0.000
  YS02001658              0.09     52.24      0  02:15       0.016     0.000
  YS02001661              0.01      1.96      0  02:09       0.000     0.000
  YS02001664              0.09    860.96      0  02:13       0.145     0.000
  YS02001745              0.01      2.05      0  02:09       0.000     0.000
  YS02001748              0.01      2.07      0  02:09       0.000     0.000
  YS02001751              0.01      1.36      0  02:09       0.000     0.000
  YS02001754              0.01      1.14      0  02:09       0.000     0.000
  YS02001757              0.01     19.80      0  02:09       0.000     0.000
  YS02001759              0.09    771.56      0  02:13       0.127     0.000
  YS02001762              0.05      4.74      0  02:09       0.000     0.000
  YS02001765              0.01      1.73      0  01:56       0.000     0.000
  YS02001767              0.01      1.40      0  01:56       0.000     0.000
  YS02001770              0.31   4323.63      0  02:13       2.181     0.000
  YS02001774              0.01      2.04      0  01:56       0.000     0.000
  YS02001779              0.53    851.49      0  02:17       1.207     0.000
  YS02001882              0.01      0.53      0  02:15       0.000     0.000
  YS02001884              0.01      0.92      0  02:00       0.000     0.000
  YS02001887              0.12   1109.36      0  02:13       0.242     0.000
  YS02001890              0.60   1536.23      0  02:10       1.369     0.000
  YS02001895              0.01      0.37      0  02:29       0.000     0.000
  YS02001901              0.01      0.13      0  02:00       0.000     0.000
  YS02001904              0.01      0.84      0  02:00       0.000     0.000
  YS02001907              0.94   4670.93      0  02:14       6.491     0.000
  YS02001910              0.01      0.63      0  02:00       0.000     0.000
  YS02001915              0.30   3391.28      0  02:13       1.713     0.000
  YS02001918              0.17    459.89      0  02:13       0.199     0.000
  YS02001926              0.01      0.58      0  02:09       0.000     0.000
  YS02001929              0.09    418.57      0  02:13       0.068     0.000
  YS02006553              0.01      1.12      0  02:09       0.000     0.000
  YS02006556              0.01      1.75      0  02:09       0.000     0.000
  YS02006558              0.08   1047.50      0  02:13       0.169     0.000
  YS02163301              0.01      0.51      0  02:04       0.000     0.000
  YS02163601              0.01      5.93      0  02:21       0.000     0.000
  YS02164001              0.01      0.29      0  02:29       0.000     0.000
  YSB1171                 0.28   1040.67      0  01:50       0.631     0.000
  YSB1174                 0.01      3.22      0  02:00       0.000     0.000
  
  
  **********************
  Storage Volume Summary
  **********************
  
  --------------------------------------------------------------------------------------------------
                         Average     Avg  Evap Exfil       Maximum     Max    Time of Max    Maximum
                          Volume    Pcnt  Pcnt  Pcnt        Volume    Pcnt     Occurrence    Outflow
  Storage Unit           1000 m3    Full  Loss  Loss       1000 m3    Full    days hr:min        LPS
  --------------------------------------------------------------------------------------------------
  CC-storage               1.586      25     0     0         2.825      44       0  01:45    8830.00
  JK-storage               0.091      31     0     0         0.215      74       0  02:15   11500.00
  XR-storage               0.942      65     0     0         1.111      77       0  08:00     380.00
  
  
  ***********************
  Outfall Loading Summary
  ***********************
  
  -----------------------------------------------------------
                         Flow       Avg       Max       Total
                         Freq      Flow      Flow      Volume
  Outfall Node           Pcnt       LPS       LPS    10^6 ltr
  -----------------------------------------------------------
  CC-1                  13.61   3241.97   3415.00       7.720
  CC-2                  13.96   3246.36   3415.00       7.960
  JK-1                  15.59   1309.58   5000.00       3.605
  JK-2                   2.10   4616.44   5000.00       1.550
  WSC                   99.94    649.61   1530.13      13.859
  -----------------------------------------------------------
  System                29.04  13063.96   1530.13      34.693
  
  
  ********************
  Link Flow Summary
  ********************
  
  -----------------------------------------------------------------------------
                                 Maximum  Time of Max   Maximum    Max/    Max/
                                  |Flow|   Occurrence   |Veloc|    Full    Full
  Link                 Type          LPS  days hr:min     m/sec    Flow   Depth
  -----------------------------------------------------------------------------
  1                    CONDUIT   1530.13     0  01:55      3.71    0.53    0.52
  HS02004478WS02006287 CONDUIT   2307.47     0  01:48      2.59    0.65    1.00
  HS02004479HS02004480 CONDUIT    464.07     0  01:45      0.66    0.45    1.00
  HS02004480HS02004478 CONDUIT   2148.58     0  01:44      3.07    9.05    1.00
  HS02004770HS02004777 CONDUIT    789.41     0  01:43      1.13    1.44    1.00
  HS02004777HS02004785 CONDUIT    790.50     0  01:43      1.17    0.97    1.00
  HS02004785HS02004788 CONDUIT    684.39     0  01:43      1.35    5.16    1.00
  HS02004788HS02004792 CONDUIT    835.88     0  01:50      1.41    0.55    1.00
  HS02004792HS02004799 CONDUIT   1633.57     0  01:44      2.33    1.00    1.00
  HS02004799HS02004480 CONDUIT   1781.12     0  01:44      2.54    2.25    1.00
  HS02004802HS02004478 CONDUIT   1233.73     0  01:53      1.76    1.09    1.00
  HS02004807HS02004802 CONDUIT   1233.37     0  01:53      1.76    2.35    1.00
  HS02004817HS02004807 CONDUIT   1180.18     0  01:51      1.69    0.70    1.00
  HS02004817HS02004824 CONDUIT   1179.51     0  01:51      1.69    0.53    1.00
  HS02004824HS02004830 CONDUIT    687.99     0  01:44      1.01    0.90    1.00
  HS02004830HS02004837 CONDUIT    706.78     0  01:44      1.09    0.70    1.00
  HS02004837HS02004842 CONDUIT    886.01     0  01:44      1.27    0.53    1.00
  HS02004842HS02004848 CONDUIT    884.66     0  01:44      1.40    0.52    1.00
  HS02004848HS02004852 CONDUIT   1076.05     0  01:45      1.66    1.21    1.00
  HS02004852HS02004856 CONDUIT   1067.42     0  01:45      1.52    1.22    1.00
  HS02004856HS02004862 CONDUIT   1081.06     0  01:45      1.64    1.08    1.00
  HS02004862HS02004870 CONDUIT   1033.56     0  01:46      1.50    1.12    1.00
  HS02004870HS02004876 CONDUIT   1225.13     0  01:51      1.75    0.81    1.00
  HS02004876HS02004881 CONDUIT   1499.13     0  01:51      2.65   15.94    1.00
  HS02004881HS02006253 CONDUIT   1633.55     0  01:50      2.48    0.32    1.00
  HS02004901HS02004770 CONDUIT    265.79     0  02:07      0.38    1.00    1.00
  WS02001211WS02001212 CONDUIT    215.85     0  03:11      0.54    0.17    0.70
  WS02001212WS02001213 CONDUIT    221.19     0  03:11      1.04    0.34    0.57
  WS02001213WS02003059 CONDUIT    228.58     0  03:12      0.47    0.38    0.90
  WS02003059WS02003060 CONDUIT    237.82     0  03:12      0.66    0.16    0.82
  WS02003060WS02003069 CONDUIT   1528.34     0  01:54      2.09    0.60    0.62
  WS02003066WSF200     CONDUIT   1328.18     0  01:50      3.29    0.22    0.39
  WS02003067WS02003066 CONDUIT   1328.33     0  01:50      2.03    0.43    0.56
  WS02003069WS02003072 CONDUIT   1528.54     0  01:54      1.90    0.74    0.67
  WS02003072WS02003073 CONDUIT   1528.50     0  01:55      2.06    3.30    0.62
  WS02004138WS02004139 CONDUIT    190.67     0  00:29      2.14    0.04    0.42
  WS02004139WS02001211 CONDUIT    199.45     0  03:11      0.54    0.25    0.61
  WS02004401WS02004402 CONDUIT   1327.92     0  01:49      1.69    1.59    1.00
  WS02004402WS02004403 CONDUIT   1328.12     0  01:50      1.69    1.91    1.00
  WS02004403WS02004404 CONDUIT   1328.41     0  01:50      1.69    0.96    1.00
  WS02004404WS02004405 CONDUIT   1329.18     0  01:50      1.69   13.02    1.00
  WS02004405WS02004406 CONDUIT   1328.28     0  01:50      1.69    2.62    1.00
  WS02004406WS02004407 CONDUIT   1328.75     0  01:50      1.76    0.59    0.99
  WS02004407WS02004409 CONDUIT   1328.14     0  01:50      1.93    0.47    0.99
  WS02004409WS02004410 CONDUIT   1328.34     0  01:50      1.69    1.72    1.00
  WS02004410WS02004411 CONDUIT   1328.61     0  01:50      1.69    1.81    1.00
  WS02004411WS02004412 CONDUIT   1328.10     0  01:50      1.69    1.89    1.00
  WS02004412WS02004413 CONDUIT   1328.21     0  01:50      1.69    0.89    1.00
  WS02004413WS02003067 CONDUIT   1328.24     0  01:50      2.05    0.57    0.77
  WS02006109WS02006110 CONDUIT   1120.87     0  02:12      2.23    2.16    1.00
  WS02006110WS02006113 CONDUIT   1120.78     0  02:12      2.23    1.02    1.00
  WS02006111WS02006112 CONDUIT   1120.78     0  02:12      2.23    0.53    1.00
  WS02006112WS02006115 CONDUIT   1327.57     0  01:50      1.69    0.78    1.00
  WS02006113WS02006111 CONDUIT   1120.73     0  02:12      2.70    1.34    1.00
  WS02006115WS02006116 CONDUIT   1327.68     0  01:49      1.69    1.70    1.00
  WS02006116WS02004401 CONDUIT   1327.69     0  01:50      1.69    1.83    1.00
  WS02006228WS02006109 CONDUIT   1288.95     0  01:48      2.56    5.63    1.00
  WS02006229WS02006228 CONDUIT   1289.27     0  01:48      2.56    4.27    1.00
  WS02006230WS02006229 CONDUIT   1017.50     0  01:48      2.64   22.64    1.00
  WS02006231WS02006230 CONDUIT    457.09     0  01:56      1.40    6.93    1.00
  WS02006232WS02006231 CONDUIT    456.40     0  01:56      1.29    0.96    1.00
  WS02006234WS02006232 CONDUIT    461.68     0  00:07      1.41    0.93    1.00
  WS02006235WS02006234 CONDUIT    532.42     0  00:06      1.53    5.62    1.00
  WS02006238WS02006235 CONDUIT    536.52     0  00:06      1.45    1.20    1.00
  WS02006239WS02006238 CONDUIT    538.67     0  00:06      1.41    1.72    1.00
  WS02006240WS02006239 CONDUIT    546.92     0  00:06      1.43    1.72    1.00
  WS02006242WS02006240 CONDUIT    595.70     0  00:06      1.64    2.37    1.00
  WS02006243WS02006242 CONDUIT    677.22     0  01:31      1.77    1.45    1.00
  WS02006245WS02006243 CONDUIT    724.32     0  01:31      1.95    2.14    1.00
  WS02006247WS02006245 CONDUIT    772.18     0  01:31      2.11    6.12    1.00
  WS02006248WS02006247 CONDUIT    860.31     0  01:26      2.26    1.87    1.00
  WS02006249WS02006248 CONDUIT    910.20     0  01:26      2.37    4.99    1.00
  WS02006251WS02006249 CONDUIT   1371.83     0  01:50      3.56    3.96    1.00
  WS02006252WS02006251 CONDUIT   1154.68     0  03:15    >50.00    4.24    1.00
  WS02006253WS02006251 CONDUIT   1676.97     0  01:50      4.36    5.03    1.00
  WS02006256WS02006235 CONDUIT    288.93     0  00:00      4.23    3.06    1.00
  WS02006280WS02006229 CONDUIT   2308.02     0  01:48      4.09    0.49    1.00
  WS02006284WS02006280 CONDUIT   2308.55     0  01:55      3.02    0.97    1.00
  WS02006287WS02006284 CONDUIT   2308.96     0  01:55      2.94    1.07    1.00
  WSF200WS02003060     CONDUIT   1327.76     0  01:50      2.44    0.29    0.51
  YS02001580YS02001583 CONDUIT     54.17     0  01:33      0.45    0.21    1.00
  YS02001583YS02001586 CONDUIT     88.39     0  01:33      0.37    0.13    1.00
  YS02001586YS02001590 CONDUIT    321.72     0  02:29      1.26    0.56    1.00
  YS02001590YS02001593 CONDUIT    319.74     0  02:29      1.14    2.01    1.00
  YS02001593YS02001596 CONDUIT    318.22     0  02:00      1.82    0.50    1.00
  YS02001596YS02001600 CONDUIT    318.53     0  01:55      1.32    0.62    1.00
  YS02001600YS02001601 CONDUIT    318.70     0  01:55      1.13    0.55    1.00
  YS02001601YS02001602 CONDUIT    512.71     0  03:00      1.81    1.85    1.00
  YS02001602YS02001605 CONDUIT    512.95     0  03:00      1.81   10.85    1.00
  YS02001605YS02001607 CONDUIT    513.08     0  03:00      1.81    2.81    1.00
  YS02001607YS02001610 CONDUIT    513.76     0  03:00      0.65    0.49    1.00
  YS02001610YS02001613 CONDUIT    622.19     0  02:10      0.79    0.72    1.00
  YS02001613YS02001616 CONDUIT    622.56     0  02:10      0.79    0.53    1.00
  YS02001616YS02001619 CONDUIT    624.79     0  02:29      0.80    1.08    1.00
  YS02001619YS02001622 CONDUIT   1056.19     0  02:29      1.34    1.56    1.00
  YS02001622YS02001625 CONDUIT   1053.73     0  02:14      1.34    0.56    1.00
  YS02001625YS02001629 CONDUIT   1009.64     0  02:48      1.29    0.48    1.00
  YS02001629YS02163301 CONDUIT   1139.05     0  02:14      1.45    1.40    1.00
  YS02001633YS02163601 CONDUIT   1331.79     0  02:47      1.70    1.40    1.00
  YS02001641YS02001644 CONDUIT   1334.11     0  02:47      1.70    4.31    1.00
  YS02001644YS02001647 CONDUIT   1667.62     0  01:43      2.15    0.98    1.00
  YS02001647YS02001649 CONDUIT   1666.56     0  01:43      2.30    0.88    1.00
  YS02001649YS02001757 CONDUIT   1960.97     0  02:43      2.52    1.19    1.00
  YS02001652YS02001649 CONDUIT   2429.38     0  02:15      3.09    1.20    1.00
  YS02001655YS02001652 CONDUIT   2429.34     0  02:14      3.09    1.18    1.00
  YS02001658YS02001655 CONDUIT   2731.29     0  02:15      3.48    1.16    1.00
  YS02001661YS02001658 CONDUIT   2783.86     0  02:15      3.54    1.09    1.00
  YS02001664YS02001661 CONDUIT   2783.84     0  02:15      3.54    0.87    1.00
  YS02001745YS02001748 CONDUIT   2194.52     0  02:13      2.79    0.84    1.00
  YS02001748YS02001751 CONDUIT   2195.69     0  02:13      2.80    1.11    1.00
  YS02001751YS02001754 CONDUIT   2194.29     0  02:13      2.79    1.06    1.00
  YS02001754YS02001757 CONDUIT   2196.73     0  02:13      2.80    0.88    1.00
  YS02001757CaochengTiaoxuchi CONDUIT   3757.06     0  02:12      5.86    1.63    1.00
  YS02001759YS02001757 CONDUIT   1693.66     0  02:14      2.16    1.20    1.00
  YS02001762YS02001759 CONDUIT    823.00     0  02:28      1.05    0.95    1.00
  YS02001765YS02001762 CONDUIT    822.13     0  02:28      1.05    0.77    1.00
  YS02001767YS02001765 CONDUIT    821.51     0  02:28      1.05    1.03    1.00
  YS02001770YS02001767 CONDUIT    820.56     0  02:28      1.04    3.25    1.00
  YS02001774YS02001770 CONDUIT    852.16     0  02:16      1.09    0.54    1.00
  YS02001779YS02001774 CONDUIT    851.78     0  02:17      1.08    0.43    1.00
  YS02001783YS02001784 CONDUIT   1322.65     0  02:13      2.63    1.82    1.00
  YS02001784YS02001785 CONDUIT   1322.76     0  02:13      2.63    3.08    1.00
  YS02001786YS02001788 CONDUIT   1323.07     0  02:13      2.74    2.55    0.93
  YS02001788YS02001790 CONDUIT   1339.76     0  02:14      2.91    0.99    0.92
  YS02001790YS02001791 CONDUIT   1418.45     0  02:14      3.57    1.54    0.76
  YS02001791YS02001793 CONDUIT   1437.33     0  02:14      6.94    0.62    0.52
  YS02001793JiankangQianchi CONDUIT   1722.37     0  02:10      3.35    0.14    0.69
  YS02001882YS02001884 CONDUIT     28.04     0  01:19      0.25    0.03    1.00
  YS02001884YS02001887 CONDUIT     38.52     0  01:39      0.19    0.05    1.00
  YS02001887YS02001890 CONDUIT   2052.03     0  02:15      2.61    3.51    1.00
  YS02001890YS02001895 CONDUIT    522.25     0  02:04      0.66    0.24    1.00
  YS02001895YS02001898 CONDUIT    518.53     0  02:14      0.66    0.90    1.00
  YS02001898YS02001901 CONDUIT    529.44     0  02:00      0.67    0.34    1.00
  YS02001901YS02001904 CONDUIT    532.69     0  02:00      0.68    0.83    1.00
  YS02001904YS02001907 CONDUIT    524.91     0  02:00      0.67    0.18    1.00
  YS02001907YS02006553 CONDUIT   2161.06     0  02:14      2.40    2.54    1.00
  YS02001910YS02001907 CONDUIT   1993.06     0  02:17      2.54    1.12    1.00
  YS02001915YS02001910 CONDUIT   1993.25     0  02:17      2.54    0.99    1.00
  YS02001918YS02001915 CONDUIT   1221.69     0  02:18      1.56    0.67    1.00
  YS02001920YS02001918 CONDUIT   1681.78     0  02:14      2.14    1.63    1.00
  YS02001923YS02001920 CONDUIT   1679.03     0  02:14      2.14    0.75    1.00
  YS02001926YS02001923 CONDUIT   1679.13     0  02:14      2.14    2.40    1.00
  YS02001929YS02001926 CONDUIT   1678.85     0  02:13      2.14    0.80    1.00
  YS02006553YS02006556 CONDUIT   2160.95     0  02:14      2.75    1.85    1.00
  YS02006556YS02006558 CONDUIT   2161.60     0  02:14      2.75    1.71    1.00
  YS02006558YS02006561 CONDUIT   1321.49     0  02:13      4.67    2.92    1.00
  YS02006561YS02001783 CONDUIT   1321.54     0  02:10      2.63    0.68    1.00
  YS02163301YS02001633 CONDUIT   1138.95     0  02:16      1.45    1.07    1.00
  YS02163601YS02164001 CONDUIT   1332.49     0  02:47      1.70    1.18    1.00
  YS02164001YS02001641 CONDUIT   1333.60     0  02:47      1.70    1.82    1.00
  YSB1154YSB6556       CONDUIT    444.09     0  01:50      1.15    0.80    1.00
  YSB1171HS02004479    CONDUIT    462.50     0  01:45      0.92    0.31    1.00
  YSB1174YSB1171       CONDUIT    377.10     0  01:49      0.98    0.58    1.00
  YSB6556YSB1171       CONDUIT    445.03     0  01:50      1.16    0.46    1.00
  CC-R1                PUMP      3415.00     0  01:15              5.00
  CC-R2                PUMP      3415.00     0  00:05              5.00
  CC-S1                PUMP      1000.00     0  00:05              5.00
  CC-S2                PUMP      1000.00     0  01:15              5.00
  JK-R1                PUMP      5000.00     0  01:25              5.00
  JK-R2                PUMP      5000.00     0  01:25              5.00
  JK-S                 PUMP      1500.00     0  00:20              5.00
  XR-1                 PUMP        95.00     0  00:00              1.00
  XR-2                 PUMP        95.00     0  00:00              1.00
  XR-3                 PUMP        95.00     0  00:00              1.00
  XR-4                 PUMP        95.00     0  00:00              1.00
  
  
  ***************************
  Flow Classification Summary
  ***************************
  
  -------------------------------------------------------------------------------------
                      Adjusted    ---------- Fraction of Time in Flow Class ---------- 
                       /Actual         Up    Down  Sub   Sup   Up    Down  Norm  Inlet 
  Conduit               Length    Dry  Dry   Dry   Crit  Crit  Crit  Crit  Ltd   Ctrl  
  -------------------------------------------------------------------------------------
  1                       1.00   0.00  0.00  0.00  0.00  1.00  0.00  0.00  0.36  0.00
  HS02004478WS02006287    1.00   0.11  0.00  0.00  0.57  0.32  0.00  0.00  0.60  0.00
  HS02004479HS02004480    1.00   0.04  0.00  0.00  0.96  0.00  0.00  0.00  0.11  0.00
  HS02004480HS02004478    1.00   0.09  0.00  0.00  0.51  0.00  0.00  0.40  0.00  0.00
  HS02004770HS02004777    1.00   0.00  0.09  0.00  0.91  0.00  0.00  0.00  0.02  0.00
  HS02004777HS02004785    1.00   0.00  0.00  0.00  1.00  0.00  0.00  0.00  0.11  0.00
  HS02004785HS02004788    1.00   0.00  0.00  0.00  1.00  0.00  0.00  0.00  0.00  0.00
  HS02004788HS02004792    1.00   0.00  0.00  0.00  0.99  0.01  0.00  0.00  0.89  0.00
  HS02004792HS02004799    1.00   0.00  0.00  0.00  0.99  0.01  0.00  0.00  0.85  0.00
  HS02004799HS02004480    1.00   0.00  0.04  0.00  0.90  0.00  0.06  0.00  0.00  0.00
  HS02004802HS02004478    1.00   0.09  0.00  0.00  0.91  0.00  0.00  0.00  0.02  0.00
  HS02004807HS02004802    1.00   0.09  0.00  0.00  0.90  0.00  0.00  0.01  0.00  0.00
  HS02004817HS02004807    1.00   0.00  0.09  0.00  0.91  0.00  0.00  0.00  0.01  0.00
  HS02004817HS02004824    1.00   0.00  0.00  0.00  1.00  0.00  0.00  0.00  0.80  0.00
  HS02004824HS02004830    1.00   0.00  0.00  0.00  1.00  0.00  0.00  0.00  0.01  0.00
  HS02004830HS02004837    1.00   0.00  0.00  0.00  1.00  0.00  0.00  0.00  0.87  0.00
  HS02004837HS02004842    1.00   0.00  0.00  0.00  1.00  0.00  0.00  0.00  0.11  0.00
  HS02004842HS02004848    1.00   0.00  0.09  0.00  0.91  0.00  0.00  0.00  0.57  0.00
  HS02004848HS02004852    1.00   0.09  0.00  0.00  0.91  0.00  0.00  0.00  0.70  0.00
  HS02004852HS02004856    1.00   0.09  0.00  0.00  0.91  0.00  0.00  0.00  0.66  0.00
  HS02004856HS02004862    1.00   0.00  0.11  0.00  0.89  0.00  0.00  0.00  0.74  0.00
  HS02004862HS02004870    1.00   0.00  0.00  0.00  1.00  0.00  0.00  0.00  0.03  0.00
  HS02004870HS02004876    1.00   0.00  0.00  0.00  1.00  0.00  0.00  0.00  0.89  0.00
  HS02004876HS02004881    1.00   0.01  0.00  0.00  0.80  0.19  0.00  0.00  0.00  0.00
  HS02004881HS02006253    1.00   0.00  0.01  0.00  0.41  0.04  0.00  0.54  0.12  0.00
  HS02004901HS02004770    1.00   0.09  0.00  0.00  0.91  0.00  0.00  0.00  0.00  0.00
[...]
  WS02006284WS02006280    1.00   0.10  0.00  0.00  0.17  0.03  0.00  0.70  0.00  0.00
  WS02006287WS02006284    1.00   0.08  0.03  0.00  0.48  0.41  0.00  0.00  0.65  0.00
  WSF200WS02003060        1.00   0.00  0.06  0.00  0.51  0.43  0.00  0.00  0.66  0.00
  YS02001580YS02001583    1.00   0.15  0.36  0.00  0.49  0.00  0.00  0.00  0.61  0.00
  YS02001583YS02001586    1.00   0.29  0.17  0.00  0.53  0.00  0.01  0.00  0.61  0.00
  YS02001586YS02001590    1.00   0.09  0.00  0.00  0.65  0.02  0.00  0.24  0.29  0.00
  YS02001590YS02001593    1.00   0.09  0.00  0.00  0.38  0.00  0.53  0.00  0.00  0.00
  YS02001593YS02001596    1.00   0.09  0.00  0.00  0.40  0.01  0.00  0.50  0.01  0.00
  YS02001596YS02001600    1.00   0.09  0.00  0.00  0.46  0.01  0.00  0.43  0.02  0.00
  YS02001600YS02001601    1.00   0.09  0.00  0.00  0.91  0.00  0.00  0.00  0.56  0.00
  YS02001601YS02001602    1.00   0.09  0.00  0.00  0.91  0.00  0.00  0.00  0.00  0.00
  YS02001602YS02001605    1.00   0.09  0.00  0.00  0.91  0.00  0.00  0.00  0.00  0.00
  YS02001605YS02001607    1.00   0.09  0.00  0.00  0.91  0.00  0.00  0.00  0.00  0.00
  YS02001607YS02001610    1.00   0.09  0.00  0.00  0.91  0.00  0.00  0.00  0.00  0.00
  YS02001610YS02001613    1.00   0.09  0.00  0.00  0.91  0.00  0.00  0.00  0.00  0.00
  YS02001613YS02001616    1.00   0.09  0.00  0.00  0.91  0.00  0.00  0.00  0.00  0.00
  YS02001616YS02001619    1.00   0.09  0.00  0.00  0.91  0.00  0.00  0.00  0.00  0.00
  YS02001619YS02001622    1.00   0.09  0.00  0.00  0.91  0.00  0.00  0.00  0.31  0.00
  YS02001622YS02001625    1.00   0.09  0.00  0.00  0.91  0.00  0.00  0.00  0.01  0.00
  YS02001625YS02001629    1.00   0.09  0.01  0.00  0.43  0.00  0.47  0.00  0.00  0.00
  YS02001629YS02163301    1.00   0.09  0.00  0.00  0.90  0.00  0.00  0.00  0.00  0.00
  YS02001633YS02163601    1.00   0.00  0.01  0.00  0.99  0.00  0.00  0.00  0.13  0.00
  YS02001641YS02001644    1.00   0.00  0.01  0.00  0.99  0.00  0.00  0.00  0.00  0.00
  YS02001644YS02001647    1.00   0.00  0.10  0.00  0.90  0.00  0.00  0.00  0.00  0.00
  YS02001647YS02001649    1.00   0.00  0.10  0.00  0.62  0.28  0.00  0.00  0.55  0.00
  YS02001649YS02001757    1.00   0.00  0.00  0.00  0.66  0.33  0.00  0.00  0.51  0.00
  YS02001652YS02001649    1.00   0.00  0.00  0.00  0.99  0.01  0.00  0.00  0.69  0.00
  YS02001655YS02001652    1.00   0.00  0.00  0.00  0.46  0.01  0.00  0.53  0.07  0.00
  YS02001658YS02001655    1.00   0.00  0.09  0.00  0.64  0.26  0.00  0.00  0.66  0.00
  YS02001661YS02001658    1.00   0.09  0.00  0.00  0.48  0.43  0.00  0.00  0.67  0.00
  YS02001664YS02001661    1.00   0.09  0.00  0.00  0.65  0.26  0.00  0.00  0.81  0.00
  YS02001745YS02001748    1.00   0.00  0.00  0.00  0.18  0.02  0.00  0.80  0.04  0.00
  YS02001748YS02001751    1.00   0.00  0.00  0.00  0.74  0.26  0.00  0.00  0.78  0.00
  YS02001751YS02001754    1.00   0.00  0.00  0.00  0.37  0.03  0.00  0.60  0.05  0.00
  YS02001754YS02001757    1.00   0.00  0.00  0.00  1.00  0.00  0.00  0.00  0.77  0.00
  YS02001757CaochengTiaoxuchi    1.00   0.00  0.00  0.00  0.58  0.42  0.00  0.00  0.81  0.00
  YS02001759YS02001757    1.00   0.00  0.00  0.00  0.99  0.01  0.00  0.00  0.58  0.00
  YS02001762YS02001759    1.00   0.00  0.00  0.00  1.00  0.00  0.00  0.00  0.03  0.00
  YS02001765YS02001762    1.00   0.00  0.00  0.00  1.00  0.00  0.00  0.00  0.69  0.00
  YS02001767YS02001765    1.00   0.00  0.00  0.00  1.00  0.00  0.00  0.00  0.00  0.00
  YS02001770YS02001767    1.00   0.00  0.00  0.00  1.00  0.00  0.00  0.00  0.00  0.00
  YS02001774YS02001770    1.00   0.00  0.09  0.00  0.75  0.00  0.15  0.00  0.01  0.00
  YS02001779YS02001774    1.00   0.00  0.00  0.00  1.00  0.00  0.00  0.00  0.74  0.00
  YS02001783YS02001784    1.00   0.00  0.10  0.00  0.90  0.00  0.00  0.00  0.55  0.00
  YS02001784YS02001785    1.00   0.00  0.00  0.00  1.00  0.00  0.00  0.00  0.14  0.00
  YS02001786YS02001788    1.00   0.00  0.00  0.00  0.73  0.27  0.00  0.00  0.00  0.00
  YS02001788YS02001790    1.00   0.00  0.00  0.00  0.20  0.80  0.00  0.00  0.76  0.00
  YS02001790YS02001791    1.00   0.00  0.00  0.00  0.01  0.99  0.00  0.00  0.11  0.00
  YS02001791YS02001793    1.00   0.00  0.00  0.00  0.00  1.00  0.00  0.00  0.02  0.00
  YS02001793JiankangQianchi    1.00   0.00  0.00  0.00  0.90  0.10  0.00  0.00  0.91  0.00
  YS02001882YS02001884    1.00   0.10  0.00  0.00  0.90  0.00  0.00  0.00  0.00  0.00
  YS02001884YS02001887    1.00   0.06  0.03  0.00  0.92  0.00  0.00  0.00  0.00  0.00
  YS02001887YS02001890    1.00   0.00  0.00  0.00  0.96  0.00  0.04  0.00  0.00  0.00
  YS02001890YS02001895    1.00   0.00  0.09  0.00  0.90  0.00  0.00  0.00  0.00  0.00
  YS02001895YS02001898    1.00   0.10  0.00  0.00  0.90  0.00  0.01  0.00  0.00  0.00
  YS02001898YS02001901    1.00   0.10  0.00  0.00  0.90  0.00  0.00  0.00  0.00  0.00
  YS02001901YS02001904    1.00   0.10  0.00  0.00  0.90  0.00  0.00  0.00  0.00  0.00
  YS02001904YS02001907    1.00   0.00  0.09  0.00  0.90  0.00  0.00  0.00  0.00  0.00
  YS02001907YS02006553    1.00   0.00  0.03  0.00  0.97  0.00  0.00  0.00  0.00  0.00
  YS02001910YS02001907    1.00   0.00  0.00  0.00  0.96  0.00  0.00  0.03  0.11  0.00
  YS02001915YS02001910    1.00   0.00  0.00  0.00  0.97  0.03  0.00  0.00  0.11  0.00
  YS02001918YS02001915    1.00   0.00  0.00  0.00  0.97  0.03  0.00  0.00  0.66  0.00
  YS02001920YS02001918    1.00   0.00  0.00  0.00  1.00  0.00  0.00  0.00  0.00  0.00
  YS02001923YS02001920    1.00   0.00  0.00  0.00  1.00  0.00  0.00  0.00  0.83  0.00
  YS02001926YS02001923    1.00   0.00  0.06  0.00  0.24  0.00  0.69  0.00  0.00  0.00
  YS02001929YS02001926    1.00   0.00  0.09  0.00  0.91  0.00  0.00  0.00  0.74  0.00
  YS02006553YS02006556    1.00   0.01  0.00  0.00  0.99  0.00  0.00  0.00  0.03  0.00
  YS02006556YS02006558    1.00   0.00  0.00  0.00  1.00  0.00  0.00  0.00  0.00  0.00
  YS02006558YS02006561    1.00   0.10  0.00  0.00  0.23  0.67  0.00  0.00  0.12  0.00
  YS02006561YS02001783    1.00   0.10  0.00  0.00  0.33  0.57  0.00  0.00  0.62  0.00
  YS02163301YS02001633    1.00   0.00  0.09  0.00  0.91  0.00  0.00  0.00  0.00  0.00
  YS02163601YS02164001    1.00   0.00  0.07  0.00  0.93  0.00  0.00  0.00  0.00  0.00
  YS02164001YS02001641    1.00   0.01  0.06  0.00  0.93  0.00  0.00  0.00  0.05  0.00
  YSB1154YSB6556          1.00   0.09  0.00  0.00  0.91  0.00  0.00  0.00  0.02  0.00
  YSB1171HS02004479       1.00   0.04  0.00  0.00  0.95  0.00  0.00  0.01  0.10  0.00
  YSB1174YSB1171          1.00   0.05  0.02  0.00  0.93  0.00  0.00  0.00  0.00  0.00
  YSB6556YSB1171          1.00   0.05  0.04  0.00  0.91  0.00  0.00  0.00  0.00  0.00
  
  
  *************************
  Conduit Surcharge Summary
  *************************
  
  ----------------------------------------------------------------------------
                                                           Hours        Hours 
                         --------- Hours Full --------   Above Full   Capacity
  Conduit                Both Ends  Upstream  Dnstream   Normal Flow   Limited
  ----------------------------------------------------------------------------
  HS02004478WS02006287        0.54      0.54      0.72      0.01         0.01
  HS02004479HS02004480        0.73      0.73      0.74      0.01         0.01
  HS02004480HS02004478        0.65      0.72      0.65      1.74         0.65
  HS02004770HS02004777        0.63      0.63      0.63      0.10         0.08
  HS02004777HS02004785        0.58      0.58      0.63      0.01         0.01
  HS02004785HS02004788        0.57      0.58      0.57      1.56         0.50
  HS02004788HS02004792        0.57      0.57      0.69      0.01         0.01
  HS02004792HS02004799        0.69      0.69      0.81      0.01         0.01
  HS02004799HS02004480        0.72      0.72      0.81      0.92         0.01
  HS02004802HS02004478        0.66      0.66      0.73      0.13         0.01
  HS02004807HS02004802        0.70      0.70      0.72      0.28         0.27
  HS02004817HS02004807        0.70      0.70      1.32      0.01         0.01
  HS02004817HS02004824        0.56      0.56      1.32      0.01         0.01
  HS02004824HS02004830        0.54      0.54      0.56      0.01         0.01
  HS02004830HS02004837        0.49      0.49      0.54      0.01         0.01
  HS02004837HS02004842        0.49      0.49      0.63      0.01         0.01
  HS02004842HS02004848        0.46      0.46      0.63      0.01         0.01
  HS02004848HS02004852        0.46      0.46      0.49      0.02         0.01
  HS02004852HS02004856        0.49      0.49      0.51      0.01         0.01
  HS02004856HS02004862        0.47      0.47      0.51      0.01         0.01
  HS02004862HS02004870        0.51      0.51      0.54      0.35         0.30
  HS02004870HS02004876        0.54      0.54      0.63      0.01         0.01
  HS02004876HS02004881        0.61      0.63      0.61      1.50         0.61
  HS02004881HS02006253        0.61      0.61      1.35      0.01         0.01
  HS02004901HS02004770        0.63      0.63      0.63      0.01         0.01
  WS02003072WS02003073        0.01      0.01      0.01      2.21         0.01
  WS02004401WS02004402        1.58      1.58      1.59      1.52         1.47
  WS02004402WS02004403        1.59      1.59      1.60      1.59         1.56
  WS02004403WS02004404        1.60      1.60      1.66      0.01         0.03
  WS02004404WS02004405        1.64      1.66      1.64      2.79         1.64
  WS02004405WS02004406        1.63      1.64      1.63      1.76         1.63
  WS02004406WS02004407        0.01      0.01      1.63      0.01         0.01
  WS02004407WS02004409        0.01      0.01      1.10      0.01         0.01
  WS02004409WS02004410        1.01      1.10      1.01      1.55         1.01
  WS02004410WS02004411        0.96      1.01      0.96      1.57         0.96
  WS02004411WS02004412        0.84      0.96      0.84      1.58         0.84
  WS02004412WS02004413        0.84      0.84      1.40      0.01         0.01
  WS02004413WS02003067        0.01      0.01      1.40      0.01         0.01
  WS02006109WS02006110        1.75      1.75      1.96      1.75         0.01
  WS02006110WS02006113        1.36      1.36      1.95      0.28         0.01
  WS02006111WS02006112        1.32      1.32      2.10      0.01         0.01
  WS02006112WS02006115        1.55      1.55      1.80      0.01         0.01
  WS02006113WS02006111        1.33      1.36      1.33      1.50         1.33
  WS02006115WS02006116        1.55      1.55      1.55      1.56         1.53
  WS02006116WS02004401        1.58      1.58      1.58      1.58         1.55
  WS02006228WS02006109        1.94      1.96      1.94      2.32         1.94
  WS02006229WS02006228        1.93      1.94      1.93      2.11         1.93
  WS02006230WS02006229        1.98      1.98      1.98      2.88         0.83
  WS02006231WS02006230        1.62      1.63      1.64      2.44         1.10
  WS02006232WS02006231        1.63      1.63      1.78      0.01         0.17
  WS02006234WS02006232        1.65      1.65      1.78      0.01         0.01
  WS02006235WS02006234        1.63      1.63      1.64      2.22         1.08
  WS02006238WS02006235        1.66      1.66      1.69      0.01         0.37
  WS02006239WS02006238        1.65      1.66      1.66      0.94         0.03
  WS02006240WS02006239        1.60      1.61      1.62      0.93         0.02
  WS02006242WS02006240        1.61      1.61      1.69      1.15         0.98
  WS02006243WS02006242        1.61      1.62      1.65      0.02         0.01
  WS02006245WS02006243        1.61      1.62      1.61      0.14         0.04
  WS02006247WS02006245        1.61      1.64      1.61      1.83         0.29
  WS02006248WS02006247        1.60      1.61      1.63      0.06         0.03
  WS02006249WS02006248        1.59      1.59      1.61      0.37         0.02
  WS02006251WS02006249        1.58      1.64      1.61      1.29         1.09
  WS02006252WS02006251        1.49      5.39      1.56      0.86         0.06
  WS02006253WS02006251        1.61      1.64      1.65      0.93         0.10
  WS02006256WS02006235        2.44      2.46      6.38      0.49         0.01
  WS02006280WS02006229        0.84      0.84      1.00      0.01         0.01
  WS02006284WS02006280        0.74      0.74      0.83      0.01         0.01
  WS02006287WS02006284        0.65      0.65      0.75      0.30         0.30
  YS02001580YS02001583        1.42      1.42      1.46      0.01         0.01
  YS02001583YS02001586        1.42      1.42      1.52      0.01         0.01
  YS02001586YS02001590        1.53      1.53      1.60      0.01         0.01
  YS02001590YS02001593        1.59      1.59      1.62      1.60         0.01
  YS02001593YS02001596        1.61      1.61      1.71      0.01         0.01
  YS02001596YS02001600        1.75      1.75      1.82      0.01         0.01
  YS02001600YS02001601        1.86      1.86      2.04      0.01         0.01
  YS02001601YS02001602        1.97      1.97      2.07      1.84         0.01
  YS02001602YS02001605        1.93      1.93      1.97      2.63         0.01
  YS02001605YS02001607        1.90      1.93      1.90      2.02         1.90
  YS02001607YS02001610        1.53      1.53      1.55      0.01         0.01
  YS02001610YS02001613        1.52      1.52      1.55      0.01         0.01
  YS02001613YS02001616        1.49      1.49      1.52      0.01         0.01
  YS02001616YS02001619        1.47      1.47      1.49      0.46         0.31
  YS02001619YS02001622        1.47      1.47      1.47      1.62         1.46
  YS02001622YS02001625        1.47      1.47      1.64      0.01         0.01
  YS02001625YS02001629        1.29      1.29      1.64      0.01         0.01
  YS02001629YS02163301        1.62      1.62      1.62      0.86         0.56
  YS02001633YS02163601        1.64      1.64      1.67      0.81         0.81
  YS02001641YS02001644        1.48      1.54      1.48      2.07         1.47
  YS02001644YS02001647        1.04      1.04      1.48      0.01         0.01
  YS02001647YS02001649        1.04      1.04      1.09      0.01         0.01
  YS02001649YS02001757        1.06      1.09      1.06      0.87         0.62
  YS02001652YS02001649        0.95      0.95      1.09      0.16         0.16
  YS02001655YS02001652        0.80      0.80      0.94      0.16         0.16
  YS02001658YS02001655        0.62      0.62      0.80      0.12         0.13
  YS02001661YS02001658        0.38      0.38      0.62      0.10         0.11
  YS02001664YS02001661        0.23      0.23      0.44      0.01         0.01
  YS02001745YS02001748        0.18      0.18      0.46      0.01         0.01
  YS02001748YS02001751        0.54      0.54      0.64      0.04         0.04
  YS02001751YS02001754        0.64      0.64      0.80      0.03         0.03
  YS02001754YS02001757        0.85      0.85      1.06      0.01         0.01
  YS02001757CaochengTiaoxuchi        0.01      1.06      0.01      1.26         0.01
  YS02001759YS02001757        0.99      0.99      1.06      0.38         0.37
  YS02001762YS02001759        0.98      0.98      0.99      0.01         0.04
  YS02001765YS02001762        0.96      0.96      0.98      0.01         0.01
  YS02001767YS02001765        0.94      0.94      0.96      0.03         0.08
  YS02001770YS02001767        0.94      0.95      0.94      1.32         0.73
  YS02001774YS02001770        0.93      0.93      0.99      0.01         0.01
  YS02001779YS02001774        0.84      0.84      0.99      0.01         0.01
  YS02001783YS02001784        1.20      1.24      1.20      1.51         1.20
  YS02001784YS02001785        1.04      1.20      1.04      1.71         1.04
  YS02001786YS02001788        0.01      1.04      0.01      1.63         0.01
  YS02001790YS02001791        0.01      0.01      0.01      1.18         0.01
  YS02001793JiankangQianchi        0.01      0.01      3.74      0.01         0.01
  YS02001882YS02001884        1.15      1.15      1.17      0.01         0.01
  YS02001884YS02001887        1.20      1.20      1.22      0.01         0.01
  YS02001887YS02001890        1.25      1.25      1.27      0.50         0.01
  YS02001890YS02001895        1.13      1.13      1.30      0.01         0.01
  YS02001895YS02001898        1.12      1.12      1.13      0.01         0.01
  YS02001898YS02001901        1.14      1.14      1.20      0.01         0.01
  YS02001901YS02001904        1.19      1.19      1.20      0.01         0.01
  YS02001904YS02001907        1.19      1.19      1.62      0.01         0.01
  YS02001907YS02006553        1.72      1.72      1.75      0.19         0.19
  YS02001910YS02001907        1.29      1.29      1.59      0.33         0.33
  YS02001915YS02001910        1.15      1.15      1.29      0.01         0.05
  YS02001918YS02001915        1.01      1.01      1.15      0.01         0.01
  YS02001920YS02001918        1.01      1.01      1.04      0.20         0.01
  YS02001923YS02001920        0.96      0.96      1.04      0.01         0.01
  YS02001926YS02001923        0.48      0.48      0.52      0.29         0.01
  YS02001929YS02001926        0.35      0.35      0.52      0.01         0.01
  YS02006553YS02006556        1.44      1.44      1.61      0.16         0.17
  YS02006556YS02006558        1.54      1.54      1.62      0.15         0.01
  YS02006558YS02006561        1.07      1.42      1.07      1.68         1.07
  YS02006561YS02001783        0.97      0.97      1.24      0.01         0.01
  YS02163301YS02001633        1.62      1.62      1.66      0.21         0.03
  YS02163601YS02164001        1.55      1.55      1.67      0.55         0.01
  YS02164001YS02001641        1.54      1.55      1.54      1.36         1.19
  YSB1154YSB6556              0.78      0.78      0.94      0.01         0.01
  YSB1171HS02004479           0.68      0.68      0.95      0.01         0.01
  YSB1174YSB1171              0.84      0.84      1.23      0.01         0.01
  YSB6556YSB1171              0.78      0.78      1.42      0.01         0.01
  
  
  ***************
  Pumping Summary
  ***************
  
  ---------------------------------------------------------------------------------------------------------
                                                  Min       Avg       Max     Total     Power    % Time Off
                        Percent   Number of      Flow      Flow      Flow    Volume     Usage    Pump Curve
  Pump                 Utilized   Start-Ups       LPS       LPS       LPS  10^6 ltr     Kw-hr    Low   High
  ---------------------------------------------------------------------------------------------------------
  CC-R1                    8.69          25      0.00   3241.97   3415.00     7.729    129.17    0.0  100.0
  CC-R2                    8.93          23      0.00   3246.36   3415.00     7.964    133.90    0.0   99.2
  CC-S1                    9.77          24      0.00    666.46   1000.00     1.776     17.13    0.0    0.0
  CC-S2                   10.33          17      0.00    956.99   1000.00     2.735     26.27    0.0    0.0
  JK-R1                    9.36          25      0.00   1309.58   5000.00     3.609     39.92    0.0    0.0
  JK-R2                    1.21          20      0.00   4616.44   5000.00     1.552     12.84    0.0    0.0
  JK-S                    11.96          37      0.00    506.12   1500.00     1.816     27.04    0.0    0.0
  XR-1                    97.91           2      0.00     95.00     95.00     2.679      9.61    0.0    0.0
  XR-2                    93.94           2      0.00     95.00     95.00     2.570      8.77    0.0    0.0
  XR-3                     0.00           1      0.00     95.00     95.00     0.000      0.00    0.0    0.0
  XR-4                     0.00           1      0.00     95.00     95.00     0.000      0.00    0.0    0.0
  

  Analysis begun on:  Wed Jul 19 15:32:39 2023
  Analysis ended on:  Wed Jul 19 15:32:47 2023
  Total elapsed time: 00:00:08