
  OWA STORM WATER MANAGEMENT MODEL - VERSION v5.1.14 (OWA 2022-07-31)
  --------------------------------------------------------------

  WARNING 04: minimum elevation drop used for Conduit WS02004404WS02004405
  WARNING 03: negative offset ignored for Link YS02001904YS02001907
  
  *********************************************************
  NOTE: The summary statistics displayed in this report are
  based on results found at every computational time step,  
  not just on results from each reporting time step.
  *********************************************************
  
  ****************
  Analysis Options
  ****************
  Flow Units ............... LPS
  Process Models:
    Rainfall/Runoff ........ YES
    RDII ................... NO
    Snowmelt ............... NO
    Groundwater ............ NO
    Flow Routing ........... YES
    Ponding Allowed ........ NO
    Water Quality .......... NO
  Infiltration Method ...... HORTON
  Flow Routing Method ...... DYNWAVE
  Surcharge Method ......... EXTRAN
  Starting Date ............ 08/28/2015 08:00:00
  Ending Date .............. 08/28/2015 16:00:00
  Antecedent Dry Days ...... 8.0
  Report Time Step ......... 00:01:00
  Wet Time Step ............ 00:01:00
  Dry Time Step ............ 00:01:00
  Routing Time Step ........ 30.00 sec
  Variable Time Step ....... YES
  Maximum Trials ........... 8
  Number of Threads ........ 4
  Head Tolerance ........... 0.001500 m
  
  
  **************************        Volume         Depth
  Runoff Quantity Continuity     hectare-m            mm
  **************************     ---------       -------
  Initial LID Storage ......         0.049         1.488
  Total Precipitation ......         3.316        99.971
  Evaporation Loss .........         0.000         0.000
  Infiltration Loss ........         0.078         2.347
  Surface Runoff ...........         2.551        76.894
  Final Storage ............         0.738        22.246
  Continuity Error (%) .....        -0.028
  
  
  **************************        Volume        Volume
  Flow Routing Continuity        hectare-m      10^6 ltr
  **************************     ---------     ---------
  Dry Weather Inflow .......         0.000         0.000
  Wet Weather Inflow .......         2.550        25.501
  Groundwater Inflow .......         0.000         0.000
  RDII Inflow ..............         0.000         0.000
  External Inflow ..........         0.083         0.834
  External Outflow .........         1.766        17.663
  Flooding Loss ............         0.972         9.717
  Evaporation Loss .........         0.000         0.000
  Exfiltration Loss ........         0.000         0.000
  Initial Stored Volume ....         0.243         2.431
  Final Stored Volume ......         0.178         1.779
  Continuity Error (%) .....        -1.370
  
  
  *************************
  Highest Continuity Errors
  *************************
  Node YS02001583 (-14.13%)
  Node YS02001884 (3.79%)
  Node WS02006256 (-2.50%)
  Node WS02006110 (-1.24%)
  
  
  ***************************
  Time-Step Critical Elements
  ***************************
  Link WS02006252WS02006251 (22.27%)
  Link WS02004404WS02004405 (22.15%)
  Link WS02006238WS02006235 (19.53%)
  Link YS02001791YS02001793 (13.64%)
  Link WS02003066WSF200 (5.41%)
  
  
  ********************************
  Highest Flow Instability Indexes
  ********************************
  Link WS02006113WS02006111 (33)
  Link WS02006252WS02006251 (28)
  Link WS02006238WS02006235 (26)
  Link WS02006256WS02006235 (24)
  Link WS02004404WS02004405 (23)
  
  
  *************************
  Routing Time Step Summary
  *************************
  Minimum Time Step           :     0.00 sec
  Average Time Step           :     2.64 sec
  Maximum Time Step           :    30.00 sec
  Percent in Steady State     :    -0.00
  Average Iterations per Step :     3.96
  Percent Not Converging      :    21.85
  
  
  ***************************
  Subcatchment Runoff Summary
  ***************************
  
  ------------------------------------------------------------------------------------------------------------------------------
                            Total      Total      Total      Total     Imperv       Perv      Total       Total     Peak  Runoff
                           Precip      Runon       Evap      Infil     Runoff     Runoff     Runoff      Runoff   Runoff   Coeff
  Subcatchment                 mm         mm         mm         mm         mm         mm         mm    10^6 ltr      LPS
  ------------------------------------------------------------------------------------------------------------------------------
  sub60                     81.29       0.00       0.00       1.40      54.29       6.13      60.42        0.79   541.27   0.743
  sub61                     81.29       0.00       0.00       2.15      54.24       9.15      63.39        1.16   784.59   0.780
  sub62                     81.29       0.00       0.00       0.95      57.83       4.16      61.99        1.70  1075.76   0.763
  sub63                     81.29       0.00       0.00       3.91      46.46      15.39      61.85        1.40   871.53   0.761
  sub64                     81.29       0.00       0.00       1.88      52.91       7.62      60.52        1.45   866.68   0.745
  sub65                     81.29       0.00       0.00       1.73      57.11       6.96      64.06        1.76  1011.09   0.788
  sub66                     81.29       0.00       0.00       4.52      44.94      14.17      59.11        2.76  1287.93   0.727
  sub67                    153.32       0.00       0.00       0.98     112.70       8.91     126.85        2.36  1937.64   0.827
  sub68                    153.32       0.00       0.00       1.73      99.55      14.62     120.60        3.32  2764.64   0.787
  sub69                     81.29       0.00       0.00       1.50      54.68       8.16      62.84        2.33  1313.17   0.773
  sub70                     81.29       0.00       0.00       4.98      43.82      17.64      61.46        1.78   742.66   0.756
  sub71                    153.32       0.00       0.00       0.92      99.91       7.85     115.46        3.02  2531.60   0.753
  sub72                    153.32       0.00       0.00       0.88     107.97       7.32     121.65        1.67  1278.95   0.793
  

  ***********************
  LID Performance Summary
  ***********************

  --------------------------------------------------------------------------------------------------------------------
                                         Total      Evap     Infil   Surface    Drain    Initial     Final  Continuity
                                        Inflow      Loss      Loss   Outflow   Outflow   Storage   Storage       Error
  Subcatchment      LID Control             mm        mm        mm        mm        mm        mm        mm           %
  --------------------------------------------------------------------------------------------------------------------
  sub60             GreenRoof            81.29      0.00      0.00      0.00      0.00      7.05     88.39       -0.05
  sub61             GreenRoof            81.29      0.00      0.00      0.00      0.00      7.05     88.39       -0.05
  sub62             GreenRoof            81.29      0.00      0.00      0.00      0.00      7.05     88.39       -0.05
  sub63             GreenRoof            81.29      0.00      0.00      0.00      0.00      7.05     88.39       -0.05
  sub64             GreenRoof            81.29      0.00      0.00      0.00      0.00      7.05     88.39       -0.05
  sub65             GreenRoof            81.29      0.00      0.00      0.00      0.00      7.05     88.39       -0.05
  sub66             GreenRoof            81.29      0.00      0.00      0.00      0.00      7.05     88.39       -0.05
  sub67             GreenRoof           153.32      0.00      0.00     27.00      0.00      7.05    133.37       -0.00
  sub68             GreenRoof           153.32      0.00      0.00     27.00      0.00      7.05    133.37       -0.00
  sub69             GreenRoof            81.29      0.00      0.00      0.00      0.00      7.05     88.39       -0.05
  sub70             GreenRoof            81.29      0.00      0.00      0.00      0.00      7.05     88.39       -0.05
  sub71             GreenRoof           153.32      0.00      0.00     27.00      0.00      7.05    133.37       -0.00
  sub72             GreenRoof           153.32      0.00      0.00     27.00      0.00      7.05    133.37       -0.00
  
  ******************
  Node Depth Summary
  ******************
  
  ---------------------------------------------------------------------------------
                                 Average  Maximum  Maximum  Time of Max    Reported
                                   Depth    Depth      HGL   Occurrence   Max Depth
  Node                 Type       Meters   Meters   Meters  days hr:min      Meters
  ---------------------------------------------------------------------------------
  WS02003060           JUNCTION     0.22     0.38     5.32     0  02:26        0.38
  WS02003066           JUNCTION     0.19     0.30     5.85     0  02:26        0.30
  WS02003067           JUNCTION     0.49     0.70     6.02     0  02:26        0.70
  WS02003069           JUNCTION     0.25     0.43     5.02     0  02:27        0.43
  WS02003072           JUNCTION     0.31     0.50     4.87     0  02:28        0.50
  WS02003073           JUNCTION     0.17     0.30     4.36     0  02:28        0.30
  WS02004401           JUNCTION     0.60     0.88     6.88     0  02:28        0.88
  WS02004402           JUNCTION     0.63     0.90     6.86     0  03:06        0.90
  WS02004403           JUNCTION     0.66     0.92     6.85     0  02:27        0.92
  WS02004404           JUNCTION     0.73     1.05     6.90     0  02:28        1.00
  WS02004405           JUNCTION     0.72     0.97     6.82     0  02:24        0.96
  WS02004406           JUNCTION     0.73     0.96     6.79     0  02:24        0.96
  WS02004407           JUNCTION     0.17     0.30     6.61     0  02:24        0.30
  WS02004409           JUNCTION     0.38     0.67     6.44     0  02:24        0.67
  WS02004410           JUNCTION     0.41     0.68     6.40     0  02:25        0.68
  WS02004411           JUNCTION     0.43     0.69     6.37     0  02:25        0.69
  WS02004412           JUNCTION     0.45     0.70     6.34     0  02:25        0.70
  WS02004413           JUNCTION     0.62     0.86     6.33     0  02:26        0.86
  WS02006109           JUNCTION     0.64     1.24     7.85     0  00:00        1.00
  WS02006110           JUNCTION     0.64     1.45     8.04     0  00:00        1.02
  WS02006111           JUNCTION     0.17     1.67     8.37     0  00:00        0.54
  WS02006112           JUNCTION     0.75     2.68     8.56     0  00:00        1.21
  WS02006113           JUNCTION     0.26     1.50     8.40     0  00:00        0.45
  WS02006115           JUNCTION     0.48     1.69     7.83     0  00:00        0.86
  WS02006116           JUNCTION     0.57     1.11     7.15     0  00:00        0.85
  WS02006228           JUNCTION     0.63     1.64     8.29     0  00:00        1.09
  WS02006229           JUNCTION     0.60     1.31     8.00     0  00:00        1.12
  WS02006230           JUNCTION     0.61     1.30     8.05     0  02:46        1.26
  WS02006231           JUNCTION     0.41     1.64     8.77     0  03:19        1.33
  WS02006232           JUNCTION     0.54     1.73     8.77     0  01:42        1.40
  WS02006234           JUNCTION     0.47     1.96     9.12     0  03:19        1.36
  WS02006235           JUNCTION     0.51     2.00     9.16     0  03:27        2.00
  WS02006238           JUNCTION     0.54     2.08     9.22     0  03:27        2.08
  WS02006239           JUNCTION     0.51     1.91     9.12     0  03:19        1.62
  WS02006240           JUNCTION     0.48     1.87     9.17     0  01:42        1.54
  WS02006242           JUNCTION     0.55     1.55     8.82     0  02:44        1.55
  WS02006243           JUNCTION     0.47     1.48     8.90     0  01:43        1.48
  WS02006245           JUNCTION     0.48     1.55     9.03     0  02:44        1.55
  WS02006247           JUNCTION     0.50     1.47     8.97     0  02:44        1.47
  WS02006248           JUNCTION     0.47     1.10     8.69     0  01:43        1.10
  WS02006249           JUNCTION     0.49     1.09     8.69     0  01:33        1.09
  WS02006251           JUNCTION     0.49     1.49     9.16     0  01:44        1.40
  WS02006252           JUNCTION     0.34     1.50     9.74     0  00:15        0.96
  WS02006256           JUNCTION     1.00     2.35     9.28     0  00:00        2.35
  WSF200               JUNCTION     0.16     0.29     5.52     0  02:26        0.29
  YS02001580           JUNCTION     0.12     1.05     9.59     0  01:34        0.78
  YS02001583           JUNCTION     0.15     1.14     9.64     0  01:34        0.82
  YS02001586           JUNCTION     0.24     1.13     9.30     0  01:34        1.13
  YS02001590           JUNCTION     0.35     1.40     9.26     0  01:34        1.37
  YS02001593           JUNCTION     0.28     1.43     9.29     0  01:34        1.29
  YS02001596           JUNCTION     0.37     1.76     9.18     0  01:34        1.65
  YS02001600           JUNCTION     0.45     1.87     9.00     0  01:34        1.86
  YS02001601           JUNCTION     0.64     2.06     8.90     0  01:33        2.06
  YS02001602           JUNCTION     0.55     1.87     8.77     0  01:34        1.87
  YS02001605           JUNCTION     0.51     1.78     8.68     0  01:34        1.78
  YS02001607           JUNCTION     0.49     1.65     8.50     0  01:54        1.64
  YS02001610           JUNCTION     0.53     1.68     8.48     0  01:34        1.68
  YS02001613           JUNCTION     0.49     1.70     8.54     0  01:34        1.67
  YS02001616           JUNCTION     0.43     1.61     8.52     0  01:34        1.61
  YS02001619           JUNCTION     0.41     1.61     8.54     0  01:34        1.61
  YS02001622           JUNCTION     0.39     1.62     8.52     0  01:34        1.58
  YS02001625           JUNCTION     0.63     1.78     8.38     0  01:34        1.78
  YS02001629           JUNCTION     0.52     1.85     8.40     0  01:34        1.85
  YS02001633           JUNCTION     0.59     2.08     8.53     0  01:39        2.08
  YS02001641           JUNCTION     0.57     1.98     8.42     0  01:36        1.95
  YS02001644           JUNCTION     0.56     1.92     8.35     0  01:36        1.92
  YS02001647           JUNCTION     0.36     1.83     8.44     0  01:36        1.72
  YS02001649           JUNCTION     0.41     2.05     8.44     0  01:36        1.95
  YS02001652           JUNCTION     0.30     2.16     8.76     0  01:36        1.84
  YS02001655           JUNCTION     0.23     2.20     9.05     0  01:36        1.69
  YS02001658           JUNCTION     0.17     2.30     9.44     0  01:36        1.52
  YS02001661           JUNCTION     0.18     2.46     9.86     0  01:37        1.38
  YS02001664           JUNCTION     0.07     1.04     8.96     0  01:37        1.00
  YS02001745           JUNCTION     0.08     2.35     9.87     0  01:37        0.72
  YS02001748           JUNCTION     0.15     2.27     9.35     0  01:37        1.17
  YS02001751           JUNCTION     0.19     2.20     9.08     0  01:37        1.35
  YS02001754           JUNCTION     0.26     2.20     8.81     0  01:37        1.61
  YS02001757           JUNCTION     0.42     2.21     8.47     0  01:37        1.95
  YS02001759           JUNCTION     0.36     2.21     8.57     0  01:37        1.95
  YS02001762           JUNCTION     0.35     2.15     8.55     0  01:37        1.93
  YS02001765           JUNCTION     0.34     2.10     8.55     0  01:37        1.90
  YS02001767           JUNCTION     0.33     2.03     8.52     0  01:37        1.91
  YS02001770           JUNCTION     0.35     1.95     8.44     0  01:36        1.95
  YS02001774           JUNCTION     0.41     2.02     8.44     0  01:36        1.98
  YS02001779           JUNCTION     0.25     1.68     8.37     0  01:36        1.68
  YS02001783           JUNCTION     0.34     2.40     8.54     0  02:29        2.40
  YS02001784           JUNCTION     0.34     2.29     8.36     0  02:29        1.24
  YS02001786           JUNCTION     0.28     0.97     7.00     0  02:29        0.93
  YS02001788           JUNCTION     0.20     0.65     6.63     0  02:25        0.65
  YS02001790           JUNCTION     0.24     0.74     6.39     0  02:26        0.72
  YS02001791           JUNCTION     0.15     0.45     5.92     0  02:26        0.44
  YS02001793           JUNCTION     0.08     0.31     5.14     0  02:13        0.30
  YS02001882           JUNCTION     0.43     1.82     8.54     0  02:24        1.82
  YS02001884           JUNCTION     0.52     1.92     8.54     0  02:24        1.92
  YS02001887           JUNCTION     0.58     2.00     8.54     0  02:24        2.00
  YS02001890           JUNCTION     0.60     1.81     8.32     0  02:08        1.81
  YS02001895           JUNCTION     0.40     1.75     8.50     0  02:29        1.58
  YS02001898           JUNCTION     0.40     1.77     8.51     0  02:29        1.58
  YS02001901           JUNCTION     0.51     1.87     8.48     0  02:29        1.87
  YS02001904           JUNCTION     0.49     1.85     8.48     0  02:29        1.85
  YS02001907           JUNCTION     0.77     1.96     8.25     0  02:03        1.96
  YS02001910           JUNCTION     0.61     2.01     8.52     0  02:28        2.01
  YS02001915           JUNCTION     0.45     2.00     8.72     0  02:21        2.00
  YS02001918           JUNCTION     0.28     1.81     8.88     0  02:23        1.81
  YS02001920           JUNCTION     0.35     2.14     9.15     0  02:29        2.14
  YS02001923           JUNCTION     0.23     1.92     9.18     0  02:23        1.85
  YS02001926           JUNCTION     0.25     1.84     9.29     0  02:23        1.79
  YS02001929           JUNCTION     0.17     1.68     9.38     0  02:24        1.68
  YS02006553           JUNCTION     0.78     2.19     8.47     0  02:29        2.19
  YS02006556           JUNCTION     0.75     2.39     8.70     0  02:29        2.39
  YS02006558           JUNCTION     0.79     2.50     8.77     0  02:29        2.50
  YS02006561           JUNCTION     0.22     1.40     8.06     0  02:29        1.12
  YS02163301           JUNCTION     0.54     1.95     8.47     0  01:39        1.95
  YS02163601           JUNCTION     0.62     2.08     8.48     0  01:36        2.05
  YS02164001           JUNCTION     0.56     2.01     8.47     0  01:36        1.95
  CC-1                 OUTFALL      0.00     0.00     0.00     0  00:00        0.00
  CC-2                 OUTFALL      0.00     0.00     0.00     0  00:00        0.00
  JK-1                 OUTFALL      0.00     0.00     0.00     0  00:00        0.00
  JK-2                 OUTFALL      0.00     0.00     0.00     0  00:00        0.00
  WSC                  OUTFALL      0.17     0.30     0.97     0  02:29        0.30
  CC-storage           STORAGE      0.82     1.52     7.02     0  02:13        1.52
  JK-storage           STORAGE      1.49     4.24     5.04     0  02:16        4.22
  
  
  *******************
  Node Inflow Summary
  *******************
  
  -------------------------------------------------------------------------------------------------
                                  Maximum  Maximum                  Lateral       Total        Flow
                                  Lateral    Total  Time of Max      Inflow      Inflow     Balance
                                   Inflow   Inflow   Occurrence      Volume      Volume       Error
  Node                 Type           LPS      LPS  days hr:min    10^6 ltr    10^6 ltr     Percent
  -------------------------------------------------------------------------------------------------
  WS02003060           JUNCTION     16.53   555.87     0  02:26       0.476        4.97       0.041
  WS02003066           JUNCTION      0.00   538.70     0  02:26           0         4.5       0.028
  WS02003067           JUNCTION      0.00   538.54     0  02:26           0         4.5       0.088
  WS02003069           JUNCTION      0.32   555.68     0  02:27     0.00922        4.98       0.070
  WS02003072           JUNCTION      0.00   554.95     0  02:27           0        4.98       0.131
  WS02003073           JUNCTION      1.82   556.50     0  02:28      0.0524        5.02       0.099
  WS02004401           JUNCTION      0.00  1791.60     0  00:00           0         4.6       0.230
  WS02004402           JUNCTION      0.00  1254.90     0  00:01           0        4.59       0.229
  WS02004403           JUNCTION      0.00   919.04     0  00:01           0        4.58       0.222
  WS02004404           JUNCTION      0.00   867.42     0  00:01           0        4.57       0.125
  WS02004405           JUNCTION      0.00   858.59     0  00:01           0        4.57       0.223
  WS02004406           JUNCTION      0.00   735.54     0  00:02           0        4.56       0.463
  WS02004407           JUNCTION      0.00   541.34     0  02:24           0        4.53       0.016
  WS02004409           JUNCTION      0.00   540.78     0  02:24           0        4.53       0.050
  WS02004410           JUNCTION      0.00   540.29     0  02:24           0        4.53       0.093
  WS02004411           JUNCTION      0.00   539.46     0  02:25           0        4.53       0.116
  WS02004412           JUNCTION      0.00   539.35     0  02:25           0        4.52       0.155
  WS02004413           JUNCTION      0.00   539.01     0  02:25           0        4.52       0.287
  WS02006109           JUNCTION      0.00  1446.81     0  00:00           0        4.49      -0.207
  WS02006110           JUNCTION      0.00   555.18     0  02:39           0        4.47      -1.223
  WS02006111           JUNCTION      0.00  1180.41     0  00:00           0        4.53      -0.924
  WS02006112           JUNCTION      0.00  2307.30     0  00:00           0        4.57      -0.010
  WS02006113           JUNCTION      0.00   568.08     0  02:14           0        4.49      -0.852
  WS02006115           JUNCTION      0.00   937.16     0  00:00           0        4.54      -0.784
  WS02006116           JUNCTION      0.00  1254.80     0  00:00           0        4.58      -0.597
  WS02006228           JUNCTION      0.00   869.18     0  00:00           0        4.48      -0.055
  WS02006229           JUNCTION      0.00   554.14     0  02:14           0        4.46      -0.027
  WS02006230           JUNCTION     10.28   687.18     0  00:00       0.296        4.45       0.009
  WS02006231           JUNCTION      0.00   573.30     0  01:52           0        4.14      -0.106
  WS02006232           JUNCTION      0.00   572.63     0  01:52           0        4.13       0.203
  WS02006234           JUNCTION      0.00   570.51     0  01:34           0        4.12      -0.287
  WS02006235           JUNCTION      0.00   568.44     0  01:34           0        4.18       0.177
  WS02006238           JUNCTION      0.00   440.02     0  02:44           0         3.2      -0.222
  WS02006239           JUNCTION      0.00   437.18     0  02:44           0        3.16      -0.240
  WS02006240           JUNCTION      0.00   429.62     0  03:25           0        3.14      -0.064
  WS02006242           JUNCTION      0.00   430.00     0  03:25           0        3.14       0.092
  WS02006243           JUNCTION      0.00   429.12     0  03:25           0        3.13      -0.316
  WS02006245           JUNCTION      0.00   428.67     0  03:25           0        3.14       0.435
  WS02006247           JUNCTION      0.00   427.91     0  03:25           0        3.14       0.027
  WS02006248           JUNCTION      0.00   439.01     0  03:20           0        3.14      -0.056
  WS02006249           JUNCTION      0.00   445.62     0  01:27           0        3.41       0.275
  WS02006251           JUNCTION      0.00   409.85     0  01:34           0        3.41       0.039
  WS02006252           JUNCTION      0.00   400.00     0  00:15           0        3.39      -0.650
  WS02006256           JUNCTION      0.00   300.00     0  00:00           0        1.47      -2.435
  WSF200               JUNCTION      0.00   538.82     0  02:26           0         4.5       0.007
  YS02001580           JUNCTION      0.00   191.82     0  01:34           0      0.0042      -5.373
  YS02001583           JUNCTION      0.00   269.13     0  01:34           0      0.0145     -12.379
  YS02001586           JUNCTION    742.66   742.67     0  01:42        1.78        1.79       0.096
  YS02001590           JUNCTION      0.00   318.12     0  01:46           0        1.36      -0.037
  YS02001593           JUNCTION      0.00   318.03     0  01:47           0        1.36       0.004
  YS02001596           JUNCTION      0.00   318.13     0  01:46           0        1.36       0.002
  YS02001600           JUNCTION      0.00   318.09     0  01:46           0        1.36       0.008
  YS02001601           JUNCTION   1313.17  1630.64     0  01:40        2.33        3.68       0.023
  YS02001602           JUNCTION      0.00   578.30     0  01:34           0        2.28       0.016
  YS02001605           JUNCTION      0.00   578.43     0  01:34           0        2.16       0.020
  YS02001607           JUNCTION      0.00   577.92     0  01:34           0        2.16       0.077
  YS02001610           JUNCTION      0.00   704.04     0  01:41           0        2.39       0.090
  YS02001613           JUNCTION      0.00   518.99     0  01:34           0        1.91       0.088
  YS02001616           JUNCTION      0.00   509.42     0  01:34           0        1.91       0.022
  YS02001619           JUNCTION   1287.93  1287.93     0  01:41        2.76        4.43      -0.014
  YS02001622           JUNCTION      0.00   955.61     0  01:37           0         4.2      -0.007
  YS02001625           JUNCTION      0.00  1302.79     0  01:42           0        4.36       0.203
  YS02001629           JUNCTION      0.00   898.51     0  01:34           0        3.51      -0.002
  YS02001633           JUNCTION   1011.09  1437.19     0  01:35        1.76        5.04       0.065
  YS02001641           JUNCTION      0.00  1429.99     0  01:35           0        4.83       0.056
  YS02001644           JUNCTION    866.68  1978.61     0  01:35        1.45        6.28       0.046
  YS02001647           JUNCTION      0.00  1979.09     0  01:35           0        5.99       0.004
  YS02001649           JUNCTION      0.00  2270.84     0  01:36           0         7.4      -0.001
  YS02001652           JUNCTION      0.00  1064.40     0  01:38           0         1.4      -0.099
  YS02001655           JUNCTION      0.00  1064.37     0  01:38           0         1.4      -0.043
  YS02001658           JUNCTION      0.00  1064.37     0  01:38           0         1.4      -0.059
  YS02001661           JUNCTION      0.00  1066.50     0  01:38           0         1.4       0.015
  YS02001664           JUNCTION    871.53   871.53     0  01:39         1.4         1.4      -0.014
  YS02001745           JUNCTION    541.27   753.39     0  01:37       0.794       0.795       0.262
  YS02001748           JUNCTION      0.00   976.18     0  01:36           0       0.799      -0.470
  YS02001751           JUNCTION      0.00   648.00     0  01:37           0       0.807       0.067
  YS02001754           JUNCTION      0.00   647.56     0  01:37           0       0.813      -0.205
  YS02001757           JUNCTION      0.00  3603.69     0  01:38           0        10.9       0.054
  YS02001759           JUNCTION    784.59  1545.96     0  01:37        1.16        2.72      -0.019
  YS02001762           JUNCTION      0.00   792.46     0  01:37           0        1.56       0.027
  YS02001765           JUNCTION      0.00   794.41     0  01:37           0        1.56       0.013
  YS02001767           JUNCTION      0.00   795.28     0  01:37           0        1.56      -0.036
  YS02001770           JUNCTION   1075.76  1075.76     0  01:39         1.7        1.74       0.004
  YS02001774           JUNCTION      0.00   514.59     0  01:36           0       0.199       0.638
  YS02001779           JUNCTION      0.00   487.26     0  01:36           0       0.155      -0.871
  YS02001783           JUNCTION      0.00  1248.50     0  02:24           0         5.6      -0.001
  YS02001784           JUNCTION      0.00  1249.29     0  02:24           0         5.6      -0.000
  YS02001786           JUNCTION      0.00  1251.44     0  02:24           0         5.6       0.001
  YS02001788           JUNCTION      0.00  1253.00     0  02:24           0         5.6       0.000
  YS02001790           JUNCTION      0.00  1249.46     0  02:24           0         5.6       0.030
  YS02001791           JUNCTION      0.00  1329.53     0  02:25           0        5.59      -0.044
  YS02001793           JUNCTION      0.00  1296.73     0  02:23           0         5.6       0.001
  YS02001882           JUNCTION      0.00    24.34     0  01:59           0      0.0138       3.334
  YS02001884           JUNCTION      0.00    37.34     0  01:23           0      0.0509       3.937
  YS02001887           JUNCTION   1937.64  1938.58     0  02:25        2.36        2.39       0.161
  YS02001890           JUNCTION      0.00  1938.49     0  02:25           0        2.35       0.176
  YS02001895           JUNCTION      0.00   564.92     0  02:29           0        1.72       0.108
  YS02001898           JUNCTION      0.00   523.28     0  02:29           0        1.71      -0.028
  YS02001901           JUNCTION      0.00   520.22     0  02:29           0        1.71       0.150
  YS02001904           JUNCTION      0.00   522.14     0  02:29           0        1.72       0.128
  YS02001907           JUNCTION      0.00  4028.57     0  02:25           0        6.44       0.253
  YS02001910           JUNCTION      0.00  1993.12     0  02:28           0        4.26       0.142
  YS02001915           JUNCTION   2531.60  3738.95     0  02:25        3.02        4.69       0.013
  YS02001918           JUNCTION      0.00  1280.01     0  02:25           0        1.68      -0.004
  YS02001920           JUNCTION      0.00  1279.85     0  02:25           0        1.68       0.028
  YS02001923           JUNCTION      0.00  1281.21     0  02:25           0        1.67      -0.018
  YS02001926           JUNCTION      0.00  1279.83     0  02:25           0        1.67       0.009
  YS02001929           JUNCTION   1278.95  1278.95     0  02:25        1.67        1.67      -0.005
  YS02006553           JUNCTION      0.00  1519.13     0  02:25           0        3.25       0.324
  YS02006556           JUNCTION      0.00  1518.08     0  02:25           0        3.27       0.225
  YS02006558           JUNCTION   2764.64  2764.64     0  02:25        3.32        6.09       0.044
  YS02006561           JUNCTION      0.00  1247.62     0  02:24           0         5.6      -0.003
  YS02163301           JUNCTION      0.00   858.97     0  01:35           0        3.49       0.046
  YS02163601           JUNCTION      0.00  1435.77     0  01:35           0        4.82       0.103
  YS02164001           JUNCTION      0.00  1433.80     0  01:35           0        4.82       0.051
  CC-1                 OUTFALL       0.00   683.00     0  00:05           0        4.55       0.000
  CC-2                 OUTFALL       0.00   683.00     0  00:10           0        3.84       0.000
  JK-1                 OUTFALL       0.00  1000.00     0  00:00           0        1.88       0.000
  JK-2                 OUTFALL       0.00  1000.00     0  01:26           0        2.38       0.000
  WSC                  OUTFALL       0.00   556.27     0  02:29           0        5.02       0.000
  CC-storage           STORAGE       0.00  3603.62     0  01:38           0        13.1      -0.243
  JK-storage           STORAGE       0.00  1342.64     0  02:23           0        5.75      -0.305
  
  
  **********************
  Node Surcharge Summary
  **********************
  
  Surcharging occurs when water rises above the top of the highest conduit.
  ---------------------------------------------------------------------
                                               Max. Height   Min. Depth
                                   Hours       Above Crown    Below Rim
  Node                 Type      Surcharged         Meters       Meters
  ---------------------------------------------------------------------
  WS02004404           JUNCTION        0.03          0.049        2.731
  WS02006109           JUNCTION        1.89          0.416        1.404
  WS02006110           JUNCTION        0.90          0.544        1.306
  WS02006111           JUNCTION        0.01          0.856        1.014
  WS02006112           JUNCTION        1.07          1.680        0.000
  WS02006113           JUNCTION        0.01          0.705        1.225
  WS02006115           JUNCTION        0.01          0.682        1.568
  WS02006116           JUNCTION        0.01          0.053        2.237
  WS02006228           JUNCTION        1.87          0.810        1.390
  WS02006229           JUNCTION        1.89          0.510        1.940
  WS02006230           JUNCTION        0.90          0.225        1.345
  WS02006231           JUNCTION        1.04          0.932        0.598
  WS02006232           JUNCTION        1.94          1.032        0.448
  WS02006234           JUNCTION        1.44          1.240        0.000
  WS02006235           JUNCTION        1.83          1.290        0.000
  WS02006238           JUNCTION        1.90          1.358        0.072
  WS02006239           JUNCTION        1.84          1.168        0.122
  WS02006240           JUNCTION        1.87          1.165        0.225
  WS02006242           JUNCTION        1.91          0.820        0.000
  WS02006243           JUNCTION        1.84          0.770        0.000
  WS02006245           JUNCTION        1.84          0.836        0.014
  WS02006247           JUNCTION        1.85          0.759        0.001
  WS02006248           JUNCTION        1.82          0.380        0.000
  WS02006249           JUNCTION        1.83          0.390        0.000
  WS02006251           JUNCTION        1.17          0.462        0.718
  WS02006252           JUNCTION        2.17          1.100        0.000
  WS02006256           JUNCTION        5.63          2.050        0.000
  YS02001580           JUNCTION        0.65          0.450        0.000
  YS02001583           JUNCTION        0.66          0.500        0.000
  YS02001586           JUNCTION        0.78          0.510        0.000
  YS02001590           JUNCTION        0.86          0.750        0.000
  YS02001593           JUNCTION        0.85          0.805        0.035
  YS02001596           JUNCTION        0.96          1.031        0.039
  YS02001600           JUNCTION        1.10          1.190        0.000
  YS02001601           JUNCTION        1.57          1.440        0.000
  YS02001602           JUNCTION        1.39          1.270        0.000
  YS02001605           JUNCTION        1.32          1.180        0.000
  YS02001607           JUNCTION        0.81          0.648        0.032
  YS02001610           JUNCTION        0.84          0.680        0.000
  YS02001613           JUNCTION        0.81          0.700        0.000
  YS02001616           JUNCTION        0.77          0.610        0.000
  YS02001619           JUNCTION        0.75          0.610        0.000
  YS02001622           JUNCTION        0.75          0.620        0.000
  YS02001625           JUNCTION        0.93          0.780        0.000
  YS02001629           JUNCTION        0.69          0.470        0.000
  YS02001633           JUNCTION        0.95          1.060        0.000
  YS02001641           JUNCTION        0.88          0.985        0.115
  YS02001644           JUNCTION        0.85          0.920        0.000
  YS02001647           JUNCTION        0.64          0.826        0.074
  YS02001649           JUNCTION        0.77          1.050        0.000
  YS02001652           JUNCTION        0.55          1.130        0.000
  YS02001655           JUNCTION        0.36          1.200        0.000
  YS02001658           JUNCTION        0.18          1.300        0.000
  YS02001661           JUNCTION        0.02          1.390        0.000
  YS02001664           JUNCTION        0.01          0.036        1.274
  YS02001745           JUNCTION        0.01          1.350        0.000
  YS02001748           JUNCTION        0.07          1.190        0.000
  YS02001751           JUNCTION        0.22          1.200        0.000
  YS02001754           JUNCTION        0.41          1.150        0.000
  YS02001757           JUNCTION        0.83          1.210        0.000
  YS02001759           JUNCTION        0.73          1.210        0.000
  YS02001762           JUNCTION        0.69          1.150        0.000
  YS02001765           JUNCTION        0.64          1.100        0.000
  YS02001767           JUNCTION        0.59          1.030        0.000
  YS02001770           JUNCTION        0.56          0.920        0.000
  YS02001774           JUNCTION        0.67          1.015        0.035
  YS02001779           JUNCTION        0.41          0.680        0.000
  YS02001783           JUNCTION        0.89          1.600        0.000
  YS02001784           JUNCTION        0.86          1.490        0.000
  YS02001786           JUNCTION        0.70          0.169        1.261
  YS02001882           JUNCTION        0.81          0.823        0.007
  YS02001884           JUNCTION        0.83          0.860        0.010
  YS02001887           JUNCTION        0.88          0.950        0.000
  YS02001890           JUNCTION        0.90          0.760        0.000
  YS02001895           JUNCTION        0.80          0.750        0.000
  YS02001898           JUNCTION        0.79          0.740        0.000
  YS02001901           JUNCTION        0.86          0.870        0.000
  YS02001904           JUNCTION        0.85          0.850        0.000
  YS02001907           JUNCTION        1.27          0.950        0.000
  YS02001910           JUNCTION        0.94          1.014        0.086
  YS02001915           JUNCTION        0.81          1.000        0.000
  YS02001918           JUNCTION        0.69          0.810        0.000
  YS02001920           JUNCTION        0.71          1.140        0.000
  YS02001923           JUNCTION        0.29          0.713        0.107
  YS02001926           JUNCTION        0.33          0.842        0.058
  YS02001929           JUNCTION        0.19          0.682        0.098
  YS02006553           JUNCTION        1.31          1.190        0.000
  YS02006556           JUNCTION        1.08          1.350        0.000
  YS02006558           JUNCTION        1.05          1.400        0.000
  YS02006561           JUNCTION        0.65          0.601        0.549
  YS02163301           JUNCTION        0.93          0.948        0.082
  YS02163601           JUNCTION        0.97          1.080        0.000
  YS02164001           JUNCTION        0.89          1.008        0.092
  
  
  *********************
  Node Flooding Summary
  *********************
  
  Flooding refers to all water that overflows a node, whether it ponds or not.
  --------------------------------------------------------------------------
                                                             Total   Maximum
                                 Maximum   Time of Max       Flood    Ponded
                        Hours       Rate    Occurrence      Volume     Depth
  Node                 Flooded       LPS   days hr:min    10^6 ltr    Meters
  --------------------------------------------------------------------------
  WS02006112              0.01   1405.86      0  00:00       0.047     0.000
  WS02006234              0.01     99.11      0  03:19       0.000     0.000
  WS02006235              0.01     11.95      0  03:27       0.000     0.000
  WS02006242              0.01     11.29      0  03:19       0.000     0.000
  WS02006243              0.01     87.34      0  01:43       0.000     0.000
  WS02006248              0.03     48.86      0  03:20       0.001     0.000
  WS02006249              1.11    114.82      0  01:44       0.259     0.000
  WS02006252              0.01      9.17      0  03:19       0.000     0.000
  WS02006256              1.35    290.23      0  03:26       0.519     0.000
  YS02001580              0.01    152.48      0  01:34       0.000     0.000
  YS02001583              0.01    209.02      0  01:34       0.001     0.000
  YS02001586              0.53    425.16      0  01:42       0.417     0.000
  YS02001590              0.01      3.04      0  01:34       0.000     0.000
  YS02001600              0.01      3.69      0  01:34       0.000     0.000
  YS02001601              0.70   1232.76      0  01:40       1.403     0.000
  YS02001602              0.57     62.05      0  01:54       0.118     0.000
  YS02001605              0.01      4.24      0  01:34       0.000     0.000
  YS02001610              0.51    703.64      0  01:41       0.712     0.000
  YS02001613              0.01     21.25      0  01:34       0.000     0.000
  YS02001616              0.01     74.58      0  01:34       0.000     0.000
  YS02001619              0.01     94.45      0  01:34       0.000     0.000
  YS02001622              0.01    148.19      0  01:34       0.000     0.000
  YS02001625              0.46   1302.78      0  01:42       1.053     0.000
  YS02001629              0.11    337.83      0  01:38       0.073     0.000
  YS02001633              0.01      0.03      0  01:39       0.000     0.000
  YS02001644              0.16    956.77      0  01:38       0.271     0.000
  YS02001649              0.01    192.55      0  01:37       0.001     0.000
  YS02001652              0.01     63.86      0  01:36       0.000     0.000
  YS02001655              0.01    429.58      0  01:36       0.001     0.000
  YS02001658              0.01    427.59      0  01:37       0.001     0.000
  YS02001661              0.01    330.16      0  01:37       0.000     0.000
  YS02001745              0.01    332.02      0  01:37       0.000     0.000
  YS02001748              0.01    468.67      0  01:37       0.002     0.000
  YS02001751              0.01    508.47      0  01:37       0.001     0.000
  YS02001754              0.01     47.90      0  01:37       0.000     0.000
  YS02001757              0.01     34.11      0  01:37       0.000     0.000
  YS02001759              0.01      5.40      0  01:37       0.000     0.000
  YS02001762              0.01     12.15      0  01:37       0.000     0.000
  YS02001765              0.01     10.94      0  01:37       0.000     0.000
  YS02001767              0.01      5.95      0  01:37       0.000     0.000
  YS02001770              0.01    108.02      0  01:36       0.001     0.000
  YS02001779              0.14    480.53      0  01:36       0.138     0.000
  YS02001783              0.01     26.33      0  02:29       0.000     0.000
  YS02001784              0.01     83.00      0  02:29       0.000     0.000
  YS02001887              0.01      4.34      0  02:24       0.000     0.000
  YS02001890              0.39   1420.69      0  02:25       0.633     0.000
  YS02001895              0.01     46.69      0  02:29       0.000     0.000
  YS02001898              0.01      7.04      0  02:29       0.000     0.000
  YS02001901              0.01      6.58      0  02:29       0.000     0.000
  YS02001904              0.01      0.40      0  02:29       0.000     0.000
  YS02001907              0.63   4027.09      0  02:25       3.654     0.000
  YS02001915              0.15   1744.43      0  02:25       0.421     0.000
  YS02001918              0.03     72.11      0  02:25       0.005     0.000
  YS02001920              0.01      0.12      0  02:29       0.000     0.000
  YS02006553              0.01      0.40      0  02:29       0.000     0.000
  YS02006556              0.01      0.73      0  02:29       0.000     0.000
  YS02006558              0.01     48.42      0  02:29       0.000     0.000
  YS02163601              0.01      3.22      0  01:36       0.000     0.000
  
  
  **********************
  Storage Volume Summary
  **********************
  
  --------------------------------------------------------------------------------------------------
                         Average     Avg  Evap Exfil       Maximum     Max    Time of Max    Maximum
                          Volume    Pcnt  Pcnt  Pcnt        Volume    Pcnt     Occurrence    Outflow
  Storage Unit           1000 m3    Full  Loss  Loss       1000 m3    Full    days hr:min        LPS
  --------------------------------------------------------------------------------------------------
  CC-storage               2.272      35     0     0         4.248      66       0  02:13    1766.00
  JK-storage               0.075      26     0     0         0.213      73       0  02:16    2300.00
  
  
  ***********************
  Outfall Loading Summary
  ***********************
  
  -----------------------------------------------------------
                         Flow       Avg       Max       Total
                         Freq      Flow      Flow      Volume
  Outfall Node           Pcnt       LPS       LPS    10^6 ltr
  -----------------------------------------------------------
  CC-1                  43.13    683.00    683.00       4.545
  CC-2                  36.50    683.00    683.00       3.843
  JK-1                   9.49   1000.00   1000.00       1.880
  JK-2                  13.96   1000.00   1000.00       2.377
  WSC                   99.99    241.63    556.27       5.018
  -----------------------------------------------------------
  System                40.61   3607.63    556.27      17.663
  
  
  ********************
  Link Flow Summary
  ********************
  
  -----------------------------------------------------------------------------
                                 Maximum  Time of Max   Maximum    Max/    Max/
                                  |Flow|   Occurrence   |Veloc|    Full    Full
  Link                 Type          LPS  days hr:min     m/sec    Flow   Depth
  -----------------------------------------------------------------------------
  1                    CONDUIT    556.27     0  02:29      2.83    0.19    0.30
  WS02003060WS02003069 CONDUIT    555.36     0  02:27      1.64    0.22    0.34
  WS02003066WSF200     CONDUIT    538.82     0  02:26      2.85    0.09    0.22
  WS02003067WS02003066 CONDUIT    538.70     0  02:26      1.21    0.17    0.42
  WS02003069WS02003072 CONDUIT    554.95     0  02:27      1.37    0.27    0.39
  WS02003072WS02003073 CONDUIT    554.68     0  02:28      1.44    1.20    0.37
  WS02004401WS02004402 CONDUIT   1254.90     0  00:01      2.61    1.51    0.89
  WS02004402WS02004403 CONDUIT    919.04     0  00:01      2.26    1.32    0.91
  WS02004403WS02004404 CONDUIT    867.42     0  00:01      2.00    0.63    0.96
  WS02004404WS02004405 CONDUIT    858.59     0  00:01      2.42    8.41    0.98
  WS02004405WS02004406 CONDUIT    735.54     0  00:02      2.27    1.45    0.96
  WS02004406WS02004407 CONDUIT    541.34     0  02:24      1.04    0.24    0.63
  WS02004407WS02004409 CONDUIT    540.78     0  02:24      2.04    0.19    0.48
  WS02004409WS02004410 CONDUIT    540.29     0  02:24      1.41    0.70    0.68
  WS02004410WS02004411 CONDUIT    539.46     0  02:25      1.34    0.74    0.69
  WS02004411WS02004412 CONDUIT    539.35     0  02:25      1.30    0.77    0.70
  WS02004412WS02004413 CONDUIT    539.01     0  02:25      1.27    0.36    0.78
  WS02004413WS02003067 CONDUIT    538.54     0  02:26      1.11    0.23    0.59
  WS02006109WS02006110 CONDUIT   1446.81     0  00:00      2.88    2.78    1.00
  WS02006110WS02006113 CONDUIT    568.08     0  02:14      1.36    0.52    1.00
  WS02006111WS02006112 CONDUIT   2307.30     0  00:00      9.18    1.10    1.00
  WS02006112WS02006115 CONDUIT    937.16     0  00:00      1.22    0.55    1.00
  WS02006113WS02006111 CONDUIT   1180.41     0  00:00      2.47    1.41    1.00
  WS02006115WS02006116 CONDUIT   1254.80     0  00:00      1.72    1.61    1.00
  WS02006116WS02004401 CONDUIT   1791.60     0  00:00      2.97    2.47    0.86
  WS02006228WS02006109 CONDUIT    869.18     0  00:00      1.91    3.80    1.00
  WS02006229WS02006228 CONDUIT    554.30     0  02:39      1.10    1.84    1.00
  WS02006230WS02006229 CONDUIT    676.90     0  00:00      1.89   15.06    1.00
  WS02006231WS02006230 CONDUIT    582.61     0  02:38      2.02    8.84    1.00
  WS02006232WS02006231 CONDUIT    573.30     0  01:52      1.77    1.20    1.00
  WS02006234WS02006232 CONDUIT    572.63     0  01:52      1.49    1.16    1.00
  WS02006235WS02006234 CONDUIT    570.51     0  01:34      1.49    6.02    1.00
  WS02006238WS02006235 CONDUIT    447.95     0  03:25      1.48    1.00    1.00
  WS02006239WS02006238 CONDUIT    440.02     0  02:44      1.14    1.41    1.00
  WS02006240WS02006239 CONDUIT    437.18     0  02:44      1.28    1.38    1.00
  WS02006242WS02006240 CONDUIT    429.62     0  03:25      1.15    1.71    1.00
  WS02006243WS02006242 CONDUIT    430.00     0  03:25      1.36    0.92    1.00
  WS02006245WS02006243 CONDUIT    429.12     0  03:25      1.38    1.27    1.00
  WS02006247WS02006245 CONDUIT    428.67     0  03:25      1.40    3.40    1.00
  WS02006248WS02006247 CONDUIT    427.91     0  03:25      1.39    0.93    1.00
  WS02006249WS02006248 CONDUIT    439.01     0  03:20      1.37    2.40    1.00
  WS02006251WS02006249 CONDUIT    445.62     0  01:27      1.78    1.28    1.00
  WS02006252WS02006251 CONDUIT    409.85     0  01:34     25.09    1.50    1.00
  WS02006256WS02006235 CONDUIT    288.74     0  00:01      4.23    3.06    1.00
  WSF200WS02003060     CONDUIT    539.34     0  02:26      2.06    0.12    0.28
  YS02001580YS02001583 CONDUIT    191.82     0  01:34      0.92    0.74    1.00
  YS02001583YS02001586 CONDUIT    213.71     0  01:34      0.95    0.32    1.00
  YS02001586YS02001590 CONDUIT    318.12     0  01:46      1.29    0.56    1.00
  YS02001590YS02001593 CONDUIT    318.03     0  01:47      1.12    2.00    1.00
  YS02001593YS02001596 CONDUIT    318.13     0  01:46      1.75    0.50    1.00
  YS02001596YS02001600 CONDUIT    318.09     0  01:46      1.21    0.62    1.00
  YS02001600YS02001601 CONDUIT    318.03     0  02:02      1.12    0.55    1.00
  YS02001601YS02001602 CONDUIT    578.30     0  01:34      2.05    2.09    1.00
  YS02001602YS02001605 CONDUIT    578.43     0  01:34      2.05   12.24    1.00
  YS02001605YS02001607 CONDUIT    577.92     0  01:34      2.04    3.17    1.00
  YS02001607YS02001610 CONDUIT    541.92     0  01:34      0.72    0.52    1.00
  YS02001610YS02001613 CONDUIT    518.99     0  01:34      0.68    0.60    1.00
  YS02001613YS02001616 CONDUIT    509.42     0  01:34      0.67    0.44    1.00
  YS02001616YS02001619 CONDUIT    476.20     0  02:15      0.67    0.83    1.00
  YS02001619YS02001622 CONDUIT    955.61     0  01:37      1.30    1.41    1.00
  YS02001622YS02001625 CONDUIT    955.91     0  01:37      1.22    0.51    1.00
  YS02001625YS02001629 CONDUIT    898.51     0  01:34      1.15    0.43    1.00
  YS02001629YS02163301 CONDUIT    858.97     0  01:35      1.09    1.06    1.00
  YS02001633YS02163601 CONDUIT   1435.77     0  01:35      1.83    1.51    1.00
  YS02001641YS02001644 CONDUIT   1428.07     0  01:35      1.82    4.62    1.00
  YS02001644YS02001647 CONDUIT   1979.09     0  01:35      2.52    1.16    1.00
  YS02001647YS02001649 CONDUIT   1985.39     0  01:35      2.53    1.05    1.00
  YS02001649YS02001757 CONDUIT   2273.78     0  01:36      2.90    1.38    1.00
  YS02001652YS02001649 CONDUIT   1064.58     0  01:38      1.36    0.53    1.00
  YS02001655YS02001652 CONDUIT   1064.40     0  01:38      1.54    0.52    1.00
  YS02001658YS02001655 CONDUIT   1064.37     0  01:38      2.06    0.45    1.00
  YS02001661YS02001658 CONDUIT   1064.37     0  01:38      2.49    0.42    1.00
  YS02001664YS02001661 CONDUIT   1066.50     0  01:38      2.59    0.33    1.00
  YS02001745YS02001748 CONDUIT    649.02     0  01:37      2.46    0.25    1.00
  YS02001748YS02001751 CONDUIT    648.00     0  01:37      1.91    0.33    1.00
  YS02001751YS02001754 CONDUIT    647.56     0  01:37      1.57    0.31    1.00
  YS02001754YS02001757 CONDUIT    647.00     0  01:37      0.82    0.26    1.00
  YS02001757CaochengTiaoxuchi CONDUIT   3603.62     0  01:38      5.06    1.56    1.00
  YS02001759YS02001757 CONDUIT   1548.02     0  01:37      1.97    1.10    1.00
  YS02001762YS02001759 CONDUIT    792.53     0  01:37      1.01    0.91    1.00
  YS02001765YS02001762 CONDUIT    792.46     0  01:37      1.01    0.74    1.00
  YS02001767YS02001765 CONDUIT    794.41     0  01:37      1.01    1.00    1.00
  YS02001770YS02001767 CONDUIT    795.28     0  01:37      1.01    3.15    1.00
  YS02001774YS02001770 CONDUIT    514.59     0  01:36      0.66    0.33    1.00
  YS02001779YS02001774 CONDUIT    487.26     0  01:36      0.64    0.25    1.00
  YS02001783YS02001784 CONDUIT   1249.29     0  02:24      2.49    1.72    1.00
  YS02001784YS02001785 CONDUIT   1251.44     0  02:24      2.49    2.91    1.00
  YS02001786YS02001788 CONDUIT   1253.00     0  02:24      2.63    2.41    0.91
  YS02001788YS02001790 CONDUIT   1249.46     0  02:24      2.81    0.92    0.86
  YS02001790YS02001791 CONDUIT   1329.53     0  02:25      3.47    1.45    0.72
  YS02001791YS02001793 CONDUIT   1296.73     0  02:23      6.75    0.56    0.45
  YS02001793JiankangQianchi CONDUIT   1342.64     0  02:23      2.67    0.11    0.65
  YS02001882YS02001884 CONDUIT     24.34     0  01:59      0.23    0.03    1.00
  YS02001884YS02001887 CONDUIT     37.34     0  01:23      0.18    0.05    1.00
  YS02001887YS02001890 CONDUIT   1938.49     0  02:25      2.47    3.32    1.00
  YS02001890YS02001895 CONDUIT    564.92     0  02:29      0.72    0.26    1.00
  YS02001895YS02001898 CONDUIT    523.28     0  02:29      0.67    0.91    1.00
  YS02001898YS02001901 CONDUIT    520.22     0  02:29      0.66    0.34    1.00
  YS02001901YS02001904 CONDUIT    522.14     0  02:29      0.66    0.81    1.00
  YS02001904YS02001907 CONDUIT    525.29     0  02:29      0.67    0.18    1.00
  YS02001907YS02006553 CONDUIT   1519.38     0  02:25      1.69    1.79    1.00
  YS02001910YS02001907 CONDUIT   1992.98     0  02:25      2.54    1.12    1.00
  YS02001915YS02001910 CONDUIT   1993.12     0  02:28      2.54    0.99    1.00
  YS02001918YS02001915 CONDUIT   1216.77     0  02:25      1.55    0.67    1.00
  YS02001920YS02001918 CONDUIT   1280.01     0  02:25      1.63    1.24    1.00
  YS02001923YS02001920 CONDUIT   1279.85     0  02:25      1.63    0.57    1.00
  YS02001926YS02001923 CONDUIT   1281.21     0  02:25      1.63    1.83    1.00
  YS02001929YS02001926 CONDUIT   1279.83     0  02:25      1.63    0.61    1.00
  YS02006553YS02006556 CONDUIT   1519.13     0  02:25      1.93    1.30    1.00
  YS02006556YS02006558 CONDUIT   1518.08     0  02:25      1.93    1.20    1.00
  YS02006558YS02006561 CONDUIT   1247.62     0  02:24      4.41    2.76    1.00
  YS02006561YS02001783 CONDUIT   1248.50     0  02:24      2.48    0.65    1.00
  YS02163301YS02001633 CONDUIT    856.87     0  01:35      1.09    0.81    1.00
  YS02163601YS02164001 CONDUIT   1433.80     0  01:35      1.83    1.27    1.00
  YS02164001YS02001641 CONDUIT   1429.99     0  01:35      1.82    1.95    1.00
  CC-R1                PUMP       683.00     0  00:05              1.00
  CC-R2                PUMP       683.00     0  00:10              1.00
  CC-S1                PUMP       200.00     0  00:05              1.00
  CC-S2                PUMP       200.00     0  00:15              1.00
  JK-R1                PUMP      1000.00     0  00:00              1.00
  JK-R2                PUMP      1000.00     0  01:26              1.00
  JK-S                 PUMP       300.00     0  00:00              1.00
  
  
  ***************************
  Flow Classification Summary
  ***************************
  
  -------------------------------------------------------------------------------------
                      Adjusted    ---------- Fraction of Time in Flow Class ---------- 
                       /Actual         Up    Down  Sub   Sup   Up    Down  Norm  Inlet 
  Conduit               Length    Dry  Dry   Dry   Crit  Crit  Crit  Crit  Ltd   Ctrl  
  -------------------------------------------------------------------------------------
  1                       1.00   0.00  0.00  0.00  0.00  1.00  0.00  0.00  0.49  0.00
  WS02003060WS02003069    1.00   0.00  0.00  0.00  0.95  0.05  0.00  0.00  0.71  0.00
  WS02003066WSF200        1.00   0.04  0.00  0.00  0.00  0.96  0.00  0.00  0.85  0.00
  WS02003067WS02003066    1.00   0.02  0.02  0.00  0.96  0.00  0.00  0.00  0.00  0.00
  WS02003069WS02003072    1.00   0.00  0.00  0.00  1.00  0.00  0.00  0.00  0.74  0.00
  WS02003072WS02003073    1.00   0.00  0.00  0.00  0.00  0.00  0.00  1.00  0.00  0.00
  WS02004401WS02004402    1.00   0.00  0.00  0.00  1.00  0.00  0.00  0.00  0.00  0.00
  WS02004402WS02004403    1.00   0.00  0.00  0.00  1.00  0.00  0.00  0.00  0.00  0.00
  WS02004403WS02004404    1.00   0.00  0.00  0.00  1.00  0.00  0.00  0.00  0.00  0.00
  WS02004404WS02004405    1.00   0.00  0.00  0.00  1.00  0.00  0.00  0.00  0.01  0.00
  WS02004405WS02004406    1.00   0.00  0.00  0.00  1.00  0.00  0.00  0.00  0.00  0.00
  WS02004406WS02004407    1.00   0.00  0.00  0.00  1.00  0.00  0.00  0.00  0.00  0.00
  WS02004407WS02004409    1.00   0.00  0.00  0.00  0.98  0.02  0.00  0.00  0.99  0.00
  WS02004409WS02004410    1.00   0.00  0.00  0.00  1.00  0.00  0.00  0.00  0.00  0.00
  WS02004410WS02004411    1.00   0.00  0.00  0.00  1.00  0.00  0.00  0.00  0.00  0.00
  WS02004411WS02004412    1.00   0.01  0.00  0.00  0.99  0.00  0.00  0.00  0.00  0.00
  WS02004412WS02004413    1.00   0.01  0.00  0.00  0.99  0.00  0.00  0.00  0.00  0.00
  WS02004413WS02003067    1.00   0.01  0.01  0.00  0.00  0.00  0.98  0.00  0.00  0.00
  WS02006109WS02006110    1.00   0.00  0.00  0.00  1.00  0.00  0.00  0.00  0.00  0.00
  WS02006110WS02006113    1.00   0.00  0.00  0.00  1.00  0.00  0.00  0.00  0.00  0.00
  WS02006111WS02006112    1.00   0.00  0.00  0.00  1.00  0.00  0.00  0.00  1.00  0.00
  WS02006112WS02006115    1.00   0.00  0.00  0.00  1.00  0.00  0.00  0.00  0.00  0.00
  WS02006113WS02006111    1.00   0.00  0.00  0.00  0.00  1.00  0.00  0.00  0.12  0.00
  WS02006115WS02006116    1.00   0.00  0.00  0.00  1.00  0.00  0.00  0.00  0.00  0.00
  WS02006116WS02004401    1.00   0.00  0.00  0.00  1.00  0.00  0.00  0.00  0.00  0.00
  WS02006228WS02006109    1.00   0.00  0.00  0.00  1.00  0.00  0.00  0.00  0.00  0.00
  WS02006229WS02006228    1.00   0.00  0.00  0.00  1.00  0.00  0.00  0.00  0.00  0.00
  WS02006230WS02006229    1.00   0.00  0.00  0.00  1.00  0.00  0.00  0.00  0.02  0.00
  WS02006231WS02006230    1.00   0.00  0.00  0.00  0.43  0.00  0.57  0.00  0.00  0.00
  WS02006232WS02006231    1.00   0.00  0.00  0.00  0.99  0.00  0.01  0.00  0.00  0.00
  WS02006234WS02006232    1.00   0.00  0.00  0.00  1.00  0.00  0.00  0.00  0.13  0.00
  WS02006235WS02006234    1.00   0.00  0.00  0.00  0.86  0.00  0.14  0.00  0.00  0.00
  WS02006238WS02006235    1.00   0.00  0.00  0.00  1.00  0.00  0.00  0.00  0.00  0.00
  WS02006239WS02006238    1.00   0.00  0.00  0.00  1.00  0.00  0.00  0.00  0.29  0.00
  WS02006240WS02006239    1.00   0.00  0.00  0.00  0.77  0.00  0.00  0.23  0.04  0.00
  WS02006242WS02006240    1.00   0.00  0.00  0.00  0.97  0.00  0.02  0.00  0.00  0.00
  WS02006243WS02006242    1.00   0.00  0.00  0.00  0.98  0.00  0.00  0.02  0.62  0.00
  WS02006245WS02006243    1.00   0.01  0.01  0.00  0.81  0.00  0.00  0.17  0.00  0.00
  WS02006247WS02006245    1.00   0.01  0.00  0.00  0.93  0.00  0.00  0.06  0.00  0.00
  WS02006248WS02006247    1.00   0.01  0.00  0.00  0.93  0.00  0.00  0.06  0.43  0.00
  WS02006249WS02006248    1.00   0.01  0.00  0.00  0.63  0.00  0.36  0.00  0.00  0.00
  WS02006251WS02006249    1.00   0.01  0.01  0.00  0.97  0.01  0.00  0.00  0.59  0.00
  WS02006252WS02006251    1.00   0.01  0.31  0.00  0.23  0.00  0.46  0.00  0.00  0.00
  WS02006256WS02006235    1.00   0.00  0.00  0.00  0.99  0.01  0.00  0.00  0.00  0.00
  WSF200WS02003060        1.00   0.00  0.04  0.00  0.28  0.68  0.00  0.00  0.69  0.00
  YS02001580YS02001583    1.00   0.21  0.46  0.00  0.33  0.00  0.00  0.00  0.70  0.00
  YS02001583YS02001586    1.00   0.32  0.25  0.00  0.43  0.00  0.00  0.00  0.70  0.00
  YS02001586YS02001590    1.00   0.15  0.00  0.00  0.60  0.03  0.00  0.22  0.32  0.00
  YS02001590YS02001593    1.00   0.15  0.00  0.00  0.21  0.00  0.64  0.00  0.00  0.00
  YS02001593YS02001596    1.00   0.16  0.00  0.00  0.23  0.02  0.00  0.59  0.02  0.00
  YS02001596YS02001600    1.00   0.16  0.00  0.00  0.34  0.01  0.00  0.49  0.05  0.00
  YS02001600YS02001601    1.00   0.15  0.00  0.00  0.84  0.00  0.00  0.00  0.61  0.00
  YS02001601YS02001602    1.00   0.15  0.00  0.00  0.84  0.00  0.00  0.00  0.00  0.00
  YS02001602YS02001605    1.00   0.16  0.00  0.00  0.84  0.00  0.00  0.00  0.00  0.00
  YS02001605YS02001607    1.00   0.16  0.00  0.00  0.84  0.00  0.00  0.00  0.00  0.00
  YS02001607YS02001610    1.00   0.15  0.00  0.00  0.84  0.00  0.00  0.00  0.01  0.00
  YS02001610YS02001613    1.00   0.15  0.00  0.00  0.85  0.00  0.00  0.00  0.00  0.00
  YS02001613YS02001616    1.00   0.15  0.00  0.00  0.85  0.00  0.00  0.00  0.00  0.00
  YS02001616YS02001619    1.00   0.15  0.00  0.00  0.85  0.00  0.00  0.00  0.00  0.00
  YS02001619YS02001622    1.00   0.15  0.00  0.00  0.85  0.00  0.00  0.00  0.35  0.00
  YS02001622YS02001625    1.00   0.15  0.00  0.00  0.85  0.00  0.00  0.00  0.03  0.00
  YS02001625YS02001629    1.00   0.15  0.02  0.00  0.28  0.00  0.55  0.00  0.00  0.00
  YS02001629YS02163301    1.00   0.16  0.01  0.00  0.83  0.00  0.00  0.00  0.00  0.00
  YS02001633YS02163601    1.00   0.15  0.00  0.00  0.85  0.00  0.00  0.00  0.01  0.00
  YS02001641YS02001644    1.00   0.15  0.00  0.00  0.85  0.00  0.00  0.00  0.00  0.00
  YS02001644YS02001647    1.00   0.15  0.02  0.00  0.83  0.00  0.00  0.00  0.00  0.00
  YS02001647YS02001649    1.00   0.16  0.01  0.00  0.49  0.34  0.00  0.00  0.58  0.00
  YS02001649YS02001757    1.00   0.00  0.16  0.00  0.50  0.34  0.00  0.00  0.19  0.00
  YS02001652YS02001649    1.00   0.16  0.00  0.00  0.82  0.02  0.00  0.00  0.60  0.00
  YS02001655YS02001652    1.00   0.16  0.00  0.00  0.31  0.04  0.00  0.50  0.07  0.00
  YS02001658YS02001655    1.00   0.16  0.00  0.00  0.57  0.27  0.00  0.00  0.70  0.00
  YS02001661YS02001658    1.00   0.16  0.00  0.00  0.39  0.45  0.00  0.00  0.74  0.00
  YS02001664YS02001661    1.00   0.15  0.00  0.00  0.66  0.19  0.00  0.00  0.86  0.00
  YS02001745YS02001748    1.00   0.15  0.00  0.00  0.17  0.02  0.00  0.66  0.06  0.00
  YS02001748YS02001751    1.00   0.15  0.00  0.00  0.65  0.20  0.00  0.00  0.66  0.00
  YS02001751YS02001754    1.00   0.15  0.00  0.00  0.26  0.00  0.00  0.58  0.02  0.00
  YS02001754YS02001757    1.00   0.00  0.15  0.00  0.84  0.01  0.00  0.00  0.70  0.00
  YS02001757CaochengTiaoxuchi    1.00   0.00  0.00  0.00  0.95  0.05  0.00  0.00  0.79  0.00
  YS02001759YS02001757    1.00   0.00  0.15  0.00  0.84  0.01  0.00  0.00  0.56  0.00
  YS02001762YS02001759    1.00   0.15  0.00  0.00  0.84  0.00  0.00  0.00  0.02  0.00
  YS02001765YS02001762    1.00   0.15  0.00  0.00  0.85  0.00  0.00  0.00  0.60  0.00
  YS02001767YS02001765    1.00   0.15  0.00  0.00  0.85  0.00  0.00  0.00  0.00  0.00
  YS02001770YS02001767    1.00   0.15  0.00  0.00  0.85  0.00  0.00  0.00  0.00  0.00
  YS02001774YS02001770    1.00   0.16  0.00  0.00  0.69  0.00  0.15  0.00  0.01  0.00
  YS02001779YS02001774    1.00   0.16  0.36  0.00  0.48  0.00  0.00  0.00  0.62  0.00
  YS02001783YS02001784    1.00   0.17  0.00  0.00  0.83  0.00  0.00  0.00  0.56  0.00
  YS02001784YS02001785    1.00   0.17  0.00  0.00  0.83  0.00  0.00  0.00  0.41  0.00
  YS02001786YS02001788    1.00   0.17  0.00  0.00  0.53  0.30  0.00  0.00  0.00  0.00
  YS02001788YS02001790    1.00   0.17  0.00  0.00  0.24  0.59  0.00  0.00  0.60  0.00
  YS02001790YS02001791    1.00   0.17  0.00  0.00  0.00  0.83  0.00  0.00  0.14  0.00
  YS02001791YS02001793    1.00   0.17  0.00  0.00  0.00  0.83  0.00  0.00  0.02  0.00
  YS02001793JiankangQianchi    1.00   0.00  0.17  0.00  0.77  0.06  0.00  0.00  0.76  0.00
  YS02001882YS02001884    1.00   0.16  0.00  0.00  0.84  0.00  0.00  0.00  0.00  0.00
  YS02001884YS02001887    1.00   0.16  0.00  0.00  0.84  0.00  0.00  0.00  0.00  0.00
  YS02001887YS02001890    1.00   0.15  0.00  0.00  0.84  0.00  0.00  0.00  0.00  0.00
  YS02001890YS02001895    1.00   0.15  0.01  0.00  0.84  0.00  0.00  0.00  0.00  0.00
  YS02001895YS02001898    1.00   0.16  0.00  0.00  0.83  0.00  0.01  0.00  0.00  0.00
  YS02001898YS02001901    1.00   0.16  0.00  0.00  0.84  0.00  0.00  0.00  0.01  0.00
  YS02001901YS02001904    1.00   0.16  0.00  0.00  0.84  0.00  0.00  0.00  0.00  0.00
  YS02001904YS02001907    1.00   0.15  0.01  0.00  0.84  0.00  0.00  0.00  0.00  0.00
  YS02001907YS02006553    1.00   0.15  0.00  0.00  0.84  0.00  0.00  0.00  0.00  0.00
  YS02001910YS02001907    1.00   0.15  0.00  0.00  0.84  0.00  0.00  0.01  0.01  0.00
  YS02001915YS02001910    1.00   0.15  0.00  0.00  0.84  0.01  0.00  0.00  0.01  0.00
  YS02001918YS02001915    1.00   0.15  0.01  0.00  0.84  0.00  0.00  0.00  0.66  0.00
  YS02001920YS02001918    1.00   0.16  0.01  0.00  0.84  0.00  0.00  0.00  0.00  0.00
  YS02001923YS02001920    1.00   0.16  0.00  0.00  0.84  0.00  0.00  0.00  0.73  0.00
  YS02001926YS02001923    1.00   0.15  0.00  0.00  0.16  0.00  0.68  0.00  0.00  0.00
  YS02001929YS02001926    1.00   0.15  0.00  0.00  0.85  0.00  0.00  0.00  0.77  0.00
  YS02006553YS02006556    1.00   0.16  0.00  0.00  0.84  0.00  0.00  0.00  0.00  0.00
  YS02006556YS02006558    1.00   0.15  0.00  0.00  0.85  0.00  0.00  0.00  0.00  0.00
  YS02006558YS02006561    1.00   0.17  0.00  0.00  0.15  0.68  0.00  0.00  0.13  0.00
  YS02006561YS02001783    1.00   0.17  0.00  0.00  0.33  0.51  0.00  0.00  0.64  0.00
  YS02163301YS02001633    1.00   0.15  0.01  0.00  0.84  0.00  0.00  0.00  0.00  0.00
  YS02163601YS02164001    1.00   0.16  0.00  0.00  0.84  0.00  0.00  0.00  0.01  0.00
  YS02164001YS02001641    1.00   0.15  0.01  0.00  0.84  0.00  0.00  0.00  0.00  0.00
  
  
  *************************
  Conduit Surcharge Summary
  *************************
  
  ----------------------------------------------------------------------------
                                                           Hours        Hours 
                         --------- Hours Full --------   Above Full   Capacity
  Conduit                Both Ends  Upstream  Dnstream   Normal Flow   Limited
  ----------------------------------------------------------------------------
  WS02003072WS02003073        0.01      0.01      0.01      1.54         0.01
  WS02004401WS02004402        0.01      0.01      0.01      0.01         0.01
  WS02004402WS02004403        0.01      0.01      0.01      0.02         0.01
  WS02004403WS02004404        0.01      0.01      0.02      0.01         0.01
  WS02004404WS02004405        0.01      0.02      0.01      2.92         0.01
  WS02004405WS02004406        0.01      0.01      0.01      0.84         0.01
  WS02006109WS02006110        0.90      0.90      1.94      1.00         0.01
  WS02006110WS02006113        0.01      0.01      1.92      0.01         0.01
  WS02006111WS02006112        0.01      0.01      2.10      0.01         0.01
  WS02006112WS02006115        0.01      0.01      1.06      0.01         0.01
  WS02006113WS02006111        0.01      0.01      0.01      0.01         0.01
  WS02006115WS02006116        0.01      0.01      0.01      0.01         0.01
  WS02006116WS02004401        0.01      0.01      0.01      0.01         0.01
  WS02006228WS02006109        1.88      1.93      1.89      2.23         1.88
  WS02006229WS02006228        1.87      1.89      1.87      2.12         1.86
  WS02006230WS02006229        1.96      2.09      1.98      3.35         1.96
  WS02006231WS02006230        0.90      0.90      1.10      2.80         0.01
  WS02006232WS02006231        1.04      1.04      1.94      1.18         0.01
  WS02006234WS02006232        1.82      1.82      1.94      1.12         1.15
  WS02006235WS02006234        1.42      1.43      1.82      2.63         0.04
  WS02006238WS02006235        1.86      1.86      1.93      0.01         0.02
  WS02006239WS02006238        1.90      1.92      1.90      1.98         1.65
  WS02006240WS02006239        1.83      1.89      1.84      1.98         1.52
  WS02006242WS02006240        1.87      1.87      1.97      2.18         0.01
  WS02006243WS02006242        1.86      1.86      1.91      0.01         0.10
  WS02006245WS02006243        1.84      1.84      1.84      1.07         0.91
  WS02006247WS02006245        1.84      1.85      1.84      2.48         1.81
  WS02006248WS02006247        1.83      1.83      1.85      0.01         0.13
  WS02006249WS02006248        1.82      1.82      1.83      2.45         0.01
  WS02006251WS02006249        1.82      1.83      1.83      2.05         1.67
  WS02006252WS02006251        2.12      2.13      2.15      2.13         0.01
  WS02006256WS02006235        2.60      2.69      5.46      1.37         0.04
  YS02001580YS02001583        0.65      0.65      0.70      0.01         0.01
  YS02001583YS02001586        0.66      0.66      0.78      0.01         0.01
  YS02001586YS02001590        0.79      0.79      0.86      0.01         0.01
  YS02001590YS02001593        0.85      0.85      0.87      0.93         0.01
  YS02001593YS02001596        0.86      0.86      0.96      0.01         0.01
  YS02001596YS02001600        0.99      0.99      1.10      0.01         0.01
  YS02001600YS02001601        1.18      1.18      1.57      0.01         0.01
  YS02001601YS02001602        1.39      1.39      1.60      1.12         0.01
  YS02001602YS02001605        1.32      1.32      1.39      2.17         0.01
  YS02001605YS02001607        1.27      1.32      1.27      1.50         1.27
  YS02001607YS02001610        0.81      0.81      0.84      0.01         0.01
  YS02001610YS02001613        0.81      0.81      0.84      0.01         0.01
  YS02001613YS02001616        0.76      0.76      0.81      0.01         0.01
  YS02001616YS02001619        0.75      0.75      0.76      0.01         0.02
  YS02001619YS02001622        0.75      0.75      0.75      0.89         0.72
  YS02001622YS02001625        0.75      0.75      0.93      0.01         0.01
  YS02001625YS02001629        0.69      0.69      0.93      0.01         0.01
  YS02001629YS02163301        0.92      0.92      0.93      0.24         0.20
  YS02001633YS02163601        0.94      0.94      0.97      0.45         0.44
  YS02001641YS02001644        0.85      0.88      0.85      1.62         0.84
  YS02001644YS02001647        0.64      0.64      0.85      0.03         0.01
  YS02001647YS02001649        0.64      0.64      0.77      0.02         0.01
  YS02001649YS02001757        0.76      0.77      0.83      0.27         0.27
  YS02001652YS02001649        0.58      0.58      0.77      0.01         0.01
  YS02001655YS02001652        0.36      0.36      0.55      0.01         0.01
  YS02001658YS02001655        0.18      0.18      0.36      0.01         0.01
  YS02001661YS02001658        0.02      0.02      0.18      0.01         0.01
  YS02001664YS02001661        0.01      0.01      0.05      0.01         0.01
  YS02001745YS02001748        0.01      0.01      0.07      0.01         0.01
  YS02001748YS02001751        0.15      0.15      0.22      0.01         0.01
  YS02001751YS02001754        0.22      0.22      0.41      0.01         0.01
  YS02001754YS02001757        0.48      0.48      0.83      0.01         0.01
  YS02001757CaochengTiaoxuchi        0.72      0.83      1.61      0.41         0.27
  YS02001759YS02001757        0.73      0.73      0.83      0.04         0.04
  YS02001762YS02001759        0.69      0.69      0.73      0.01         0.02
  YS02001765YS02001762        0.64      0.64      0.69      0.01         0.01
  YS02001767YS02001765        0.59      0.59      0.64      0.01         0.04
  YS02001770YS02001767        0.59      0.59      0.59      0.53         0.44
  YS02001774YS02001770        0.56      0.56      0.67      0.01         0.01
  YS02001779YS02001774        0.41      0.41      0.67      0.01         0.01
  YS02001783YS02001784        0.86      0.89      0.86      1.13         0.86
  YS02001784YS02001785        0.70      0.86      0.70      1.49         0.70
  YS02001786YS02001788        0.01      0.70      0.01      1.35         0.01
  YS02001790YS02001791        0.01      0.01      0.01      0.84         0.01
  YS02001793JiankangQianchi        0.01      0.01      3.46      0.01         0.01
  YS02001882YS02001884        0.81      0.81      0.83      0.01         0.01
  YS02001884YS02001887        0.86      0.86      0.88      0.01         0.01
  YS02001887YS02001890        0.90      0.90      0.91      0.31         0.01
  YS02001890YS02001895        0.80      0.80      0.94      0.01         0.01
  YS02001895YS02001898        0.79      0.79      0.80      0.01         0.01
  YS02001898YS02001901        0.80      0.80      0.86      0.01         0.01
  YS02001901YS02001904        0.85      0.85      0.86      0.01         0.01
  YS02001904YS02001907        0.85      0.85      1.31      0.01         0.01
  YS02001907YS02006553        1.50      1.50      1.56      0.06         0.06
  YS02001910YS02001907        0.94      0.94      1.27      0.18         0.17
  YS02001915YS02001910        0.81      0.81      0.94      0.01         0.02
  YS02001918YS02001915        0.69      0.69      0.81      0.01         0.01
  YS02001920YS02001918        0.69      0.69      0.71      0.06         0.01
  YS02001923YS02001920        0.64      0.64      0.71      0.01         0.01
  YS02001926YS02001923        0.29      0.29      0.33      0.14         0.01
  YS02001929YS02001926        0.19      0.19      0.33      0.01         0.01
  YS02006553YS02006556        1.08      1.08      1.31      0.04         0.04
  YS02006556YS02006558        1.20      1.20      1.34      0.03         0.01
  YS02006558YS02006561        0.73      1.05      0.73      1.44         0.73
  YS02006561YS02001783        0.65      0.65      0.89      0.01         0.01
  YS02163301YS02001633        0.93      0.93      0.96      0.01         0.01
  YS02163601YS02164001        0.89      0.89      0.97      0.03         0.01
  YS02164001YS02001641        0.88      0.89      0.88      0.79         0.69
  
  
  ***************
  Pumping Summary
  ***************
  
  ---------------------------------------------------------------------------------------------------------
                                                  Min       Avg       Max     Total     Power    % Time Off
                        Percent   Number of      Flow      Flow      Flow    Volume     Usage    Pump Curve
  Pump                 Utilized   Start-Ups       LPS       LPS       LPS  10^6 ltr     Kw-hr    Low   High
  ---------------------------------------------------------------------------------------------------------
  CC-R1                   23.15          23      0.00    683.00    683.00     4.553     82.26    0.0   32.0
  CC-R2                   19.67          48      0.00    683.00    683.00     3.870     70.59    0.0   24.4
  CC-S1                   31.61          42      0.00    200.00    200.00     1.821     11.14    0.0    0.0
  CC-S2                   27.39          35      0.00    200.00    200.00     1.578      9.56    0.0    0.0
  JK-R1                    6.54          85      0.00   1000.00   1000.00     1.884     19.14    0.0    0.0
  JK-R2                    8.26          89      0.00   1000.00   1000.00     2.379     21.67    0.0    0.0
  JK-S                    16.93          88      0.00    300.00    300.00     1.463     24.75    0.0    0.0
  

  Analysis begun on:  Thu Sep  7 21:56:39 2023
  Analysis ended on:  Thu Sep  7 21:57:17 2023
  Total elapsed time: 00:00:38