
  OWA STORM WATER MANAGEMENT MODEL - VERSION v5.1.14 (OWA 2022-07-31)
  --------------------------------------------------------------

  WARNING 04: minimum elevation drop used for Conduit WS02004404WS02004405
  WARNING 03: negative offset ignored for Link YS02001904YS02001907
  
  *********************************************************
  NOTE: The summary statistics displayed in this report are
  based on results found at every computational time step,  
  not just on results from each reporting time step.
  *********************************************************
  
  ****************
  Analysis Options
  ****************
  Flow Units ............... LPS
  Process Models:
    Rainfall/Runoff ........ YES
    RDII ................... NO
    Snowmelt ............... NO
    Groundwater ............ NO
    Flow Routing ........... YES
    Ponding Allowed ........ NO
    Water Quality .......... NO
  Infiltration Method ...... HORTON
  Flow Routing Method ...... DYNWAVE
  Surcharge Method ......... EXTRAN
  Starting Date ............ 08/28/2015 08:00:00
  Ending Date .............. 08/28/2015 16:00:00
  Antecedent Dry Days ...... 8.0
  Report Time Step ......... 00:01:00
  Wet Time Step ............ 00:01:00
  Dry Time Step ............ 00:01:00
  Routing Time Step ........ 30.00 sec
  Variable Time Step ....... YES
  Maximum Trials ........... 8
  Number of Threads ........ 4
  Head Tolerance ........... 0.001500 m
  
  
  **************************        Volume         Depth
  Runoff Quantity Continuity     hectare-m            mm
  **************************     ---------       -------
  Initial LID Storage ......         0.049         1.488
  Total Precipitation ......         6.147       185.324
  Evaporation Loss .........         0.000         0.000
  Infiltration Loss ........         0.083         2.508
  Surface Runoff ...........         5.275       159.031
  Final Storage ............         0.840        25.313
  Continuity Error (%) .....        -0.022
  
  
  **************************        Volume        Volume
  Flow Routing Continuity        hectare-m      10^6 ltr
  **************************     ---------     ---------
  Dry Weather Inflow .......         0.025         0.251
  Wet Weather Inflow .......         5.275        52.751
  Groundwater Inflow .......         0.000         0.000
  RDII Inflow ..............         0.000         0.000
  External Inflow ..........         0.083         0.834
  External Outflow .........         2.066        20.659
  Flooding Loss ............         3.411        34.112
  Evaporation Loss .........         0.000         0.000
  Exfiltration Loss ........         0.000         0.000
  Initial Stored Volume ....         0.243         2.431
  Final Stored Volume ......         0.181         1.813
  Continuity Error (%) .....        -0.565
  
  
  *************************
  Highest Continuity Errors
  *************************
  Node YS02001884 (4.56%)
  Node YS02001583 (-3.91%)
  Node WS02006256 (-3.56%)
  
  
  ***************************
  Time-Step Critical Elements
  ***************************
  Link WS02006252WS02006251 (22.10%)
  Link WS02004404WS02004405 (17.48%)
  Link WS02006238WS02006235 (17.43%)
  Link WS02006235WS02006234 (12.75%)
  Link WS02003066WSF200 (9.19%)
  
  
  ********************************
  Highest Flow Instability Indexes
  ********************************
  Link WS02006113WS02006111 (46)
  Link WS02006252WS02006251 (29)
  Link WS02006238WS02006235 (26)
  Link WS02006111WS02006112 (25)
  Link WS02006256WS02006235 (24)
  
  
  *************************
  Routing Time Step Summary
  *************************
  Minimum Time Step           :     0.01 sec
  Average Time Step           :     2.69 sec
  Maximum Time Step           :    30.00 sec
  Percent in Steady State     :    -0.00
  Average Iterations per Step :     3.94
  Percent Not Converging      :    22.70
  
  
  ***************************
  Subcatchment Runoff Summary
  ***************************
  
  ------------------------------------------------------------------------------------------------------------------------------
                            Total      Total      Total      Total     Imperv       Perv      Total       Total     Peak  Runoff
                           Precip      Runon       Evap      Infil     Runoff     Runoff     Runoff      Runoff   Runoff   Coeff
  Subcatchment                 mm         mm         mm         mm         mm         mm         mm    10^6 ltr      LPS
  ------------------------------------------------------------------------------------------------------------------------------
  sub60                    232.27       0.00       0.00       1.47     156.85      20.04     199.34        2.62  2193.82   0.858
  sub61                    232.27       0.00       0.00       2.28     156.71      30.01     204.67        3.76  3054.59   0.881
  sub62                    232.27       0.00       0.00       1.00     167.10      13.62     201.72        5.53  4460.07   0.868
  sub63                    232.27       0.00       0.00       4.20     134.22      50.94     203.02        4.61  3645.42   0.874
  sub64                    232.27       0.00       0.00       2.01     152.89      25.13     199.77        4.80  3809.15   0.860
  sub65                    232.27       0.00       0.00       1.85     165.05      22.97     205.56        5.66  4284.38   0.885
  sub66                    232.27       0.00       0.00       4.97     129.94      48.44     198.76        9.27  6514.63   0.856
  sub67                     51.25       0.00       0.00       0.91      37.00       2.40      39.39        0.73   514.86   0.769
  sub68                     51.25       0.00       0.00       1.58      32.67       3.89      36.56        1.01   645.06   0.713
  sub69                    232.27       0.00       0.00       1.65     156.38      25.96     202.77        7.51  5754.82   0.873
  sub70                    232.27       0.00       0.00       5.64     125.40      59.02     202.26        5.84  3750.76   0.871
  sub71                     51.25       0.00       0.00       0.84      32.78       2.09      34.87        0.91   531.79   0.680
  sub72                     51.25       0.00       0.00       0.80      35.40       1.94      37.34        0.51   270.10   0.729
  

  ***********************
  LID Performance Summary
  ***********************

  --------------------------------------------------------------------------------------------------------------------
                                         Total      Evap     Infil   Surface    Drain    Initial     Final  Continuity
                                        Inflow      Loss      Loss   Outflow   Outflow   Storage   Storage       Error
  Subcatchment      LID Control             mm        mm        mm        mm        mm        mm        mm           %
  --------------------------------------------------------------------------------------------------------------------
  sub60             GreenRoof           232.27      0.00      0.00     98.36      0.00      7.05    140.96        0.00
  sub61             GreenRoof           232.27      0.00      0.00     98.36      0.00      7.05    140.96        0.00
  sub62             GreenRoof           232.27      0.00      0.00     98.36      0.00      7.05    140.96        0.00
  sub63             GreenRoof           232.27      0.00      0.00     98.36      0.00      7.05    140.96        0.00
  sub64             GreenRoof           232.27      0.00      0.00     98.36      0.00      7.05    140.96        0.00
  sub65             GreenRoof           232.27      0.00      0.00     98.36      0.00      7.05    140.96        0.00
  sub66             GreenRoof           232.27      0.00      0.00     98.36      0.00      7.05    140.96        0.00
  sub67             GreenRoof            51.25      0.00      0.00      0.00      0.00      7.05     58.34       -0.08
  sub68             GreenRoof            51.25      0.00      0.00      0.00      0.00      7.05     58.34       -0.08
  sub69             GreenRoof           232.27      0.00      0.00     98.36      0.00      7.05    140.96        0.00
  sub70             GreenRoof           232.27      0.00      0.00     98.36      0.00      7.05    140.96        0.00
  sub71             GreenRoof            51.25      0.00      0.00      0.00      0.00      7.05     58.34       -0.08
  sub72             GreenRoof            51.25      0.00      0.00      0.00      0.00      7.05     58.34       -0.08
  
  ******************
  Node Depth Summary
  ******************
  
  ---------------------------------------------------------------------------------
                                 Average  Maximum  Maximum  Time of Max    Reported
                                   Depth    Depth      HGL   Occurrence   Max Depth
  Node                 Type       Meters   Meters   Meters  days hr:min      Meters
  ---------------------------------------------------------------------------------
  WS02003060           JUNCTION     0.22     0.38     5.31     0  02:05        0.38
  WS02003066           JUNCTION     0.18     0.30     5.85     0  02:05        0.30
  WS02003067           JUNCTION     0.48     0.70     6.02     0  02:05        0.70
  WS02003069           JUNCTION     0.24     0.43     5.01     0  02:06        0.43
  WS02003072           JUNCTION     0.30     0.50     4.87     0  02:06        0.50
  WS02003073           JUNCTION     0.17     0.30     4.36     0  02:07        0.30
  WS02004401           JUNCTION     0.59     0.85     6.85     0  02:02        0.85
  WS02004402           JUNCTION     0.62     0.87     6.83     0  02:03        0.87
  WS02004403           JUNCTION     0.64     0.89     6.82     0  02:02        0.89
  WS02004404           JUNCTION     0.72     0.96     6.81     0  02:02        0.96
  WS02004405           JUNCTION     0.71     0.95     6.80     0  02:03        0.95
  WS02004406           JUNCTION     0.72     0.96     6.79     0  02:03        0.95
  WS02004407           JUNCTION     0.17     0.30     6.61     0  02:03        0.29
  WS02004409           JUNCTION     0.37     0.66     6.43     0  02:04        0.66
  WS02004410           JUNCTION     0.40     0.68     6.40     0  02:04        0.68
  WS02004411           JUNCTION     0.42     0.69     6.37     0  02:04        0.69
  WS02004412           JUNCTION     0.44     0.70     6.34     0  02:04        0.70
  WS02004413           JUNCTION     0.60     0.86     6.33     0  02:05        0.86
  WS02006109           JUNCTION     0.63     1.27     7.89     0  02:50        0.99
  WS02006110           JUNCTION     0.63     1.30     7.88     0  02:50        0.95
  WS02006111           JUNCTION     0.17     0.90     7.60     0  00:00        0.36
  WS02006112           JUNCTION     0.74     2.68     8.56     0  00:00        1.09
  WS02006113           JUNCTION     0.26     1.40     8.29     0  00:00        0.45
  WS02006115           JUNCTION     0.47     1.65     7.79     0  00:00        0.83
  WS02006116           JUNCTION     0.56     1.06     7.10     0  00:00        0.83
  WS02006228           JUNCTION     0.62     1.21     7.86     0  02:50        1.09
  WS02006229           JUNCTION     0.59     1.18     7.87     0  02:50        1.11
  WS02006230           JUNCTION     0.59     1.33     8.07     0  01:52        1.24
  WS02006231           JUNCTION     0.38     1.42     8.54     0  02:51        0.98
  WS02006232           JUNCTION     0.51     1.49     8.53     0  02:51        1.21
  WS02006234           JUNCTION     0.44     1.73     8.89     0  03:19        1.73
  WS02006235           JUNCTION     0.47     1.57     8.73     0  03:19        1.52
  WS02006238           JUNCTION     0.50     1.63     8.77     0  03:19        1.56
  WS02006239           JUNCTION     0.47     1.70     8.91     0  03:17        1.56
  WS02006240           JUNCTION     0.45     1.68     8.97     0  03:17        1.54
  WS02006242           JUNCTION     0.51     1.55     8.82     0  02:18        1.55
  WS02006243           JUNCTION     0.44     1.48     8.90     0  02:18        1.48
  WS02006245           JUNCTION     0.45     1.56     9.04     0  02:18        1.56
  WS02006247           JUNCTION     0.48     1.47     8.97     0  02:18        1.47
  WS02006248           JUNCTION     0.45     1.10     8.69     0  01:52        1.10
  WS02006249           JUNCTION     0.48     1.09     8.69     0  01:42        1.09
  WS02006251           JUNCTION     0.49     1.39     9.06     0  03:10        1.36
  WS02006252           JUNCTION     0.34     1.50     9.74     0  01:31        0.92
  WS02006256           JUNCTION     0.91     2.35     9.28     0  00:00        2.35
  WSF200               JUNCTION     0.16     0.29     5.52     0  02:05        0.29
  YS02001580           JUNCTION     0.20     0.89     9.43     0  01:33        0.87
  YS02001583           JUNCTION     0.24     0.90     9.40     0  01:33        0.82
  YS02001586           JUNCTION     0.36     1.13     9.30     0  01:33        1.13
  YS02001590           JUNCTION     0.48     1.40     9.26     0  01:33        1.39
  YS02001593           JUNCTION     0.41     1.31     9.18     0  01:33        1.30
  YS02001596           JUNCTION     0.55     1.70     9.12     0  01:33        1.70
  YS02001600           JUNCTION     0.64     1.87     9.00     0  01:33        1.87
  YS02001601           JUNCTION     0.82     2.06     8.90     0  01:33        2.06
  YS02001602           JUNCTION     0.72     1.87     8.77     0  01:33        1.87
  YS02001605           JUNCTION     0.67     1.78     8.68     0  01:33        1.78
  YS02001607           JUNCTION     0.63     1.68     8.53     0  02:18        1.68
  YS02001610           JUNCTION     0.67     1.68     8.48     0  01:43        1.68
  YS02001613           JUNCTION     0.63     1.70     8.54     0  02:18        1.70
  YS02001616           JUNCTION     0.57     1.61     8.52     0  01:57        1.61
  YS02001619           JUNCTION     0.56     1.61     8.54     0  01:53        1.61
  YS02001622           JUNCTION     0.55     1.62     8.52     0  02:18        1.62
  YS02001625           JUNCTION     0.78     1.78     8.38     0  01:44        1.78
  YS02001629           JUNCTION     0.70     1.85     8.40     0  01:48        1.85
  YS02001633           JUNCTION     0.78     2.08     8.53     0  01:57        2.08
  YS02001641           JUNCTION     0.75     2.05     8.49     0  01:53        2.05
  YS02001644           JUNCTION     0.74     1.92     8.35     0  01:51        1.92
  YS02001647           JUNCTION     0.55     1.80     8.41     0  01:53        1.80
  YS02001649           JUNCTION     0.63     2.05     8.44     0  02:07        2.05
  YS02001652           JUNCTION     0.52     2.15     8.75     0  02:11        2.15
  YS02001655           JUNCTION     0.43     2.20     9.05     0  02:09        2.20
  YS02001658           JUNCTION     0.35     2.30     9.44     0  02:10        2.30
  YS02001661           JUNCTION     0.33     2.44     9.84     0  02:14        2.44
  YS02001664           JUNCTION     0.18     2.31    10.23     0  02:10        2.31
  YS02001745           JUNCTION     0.21     2.04     9.56     0  02:12        2.04
  YS02001748           JUNCTION     0.32     2.20     9.28     0  02:12        2.20
  YS02001751           JUNCTION     0.38     2.14     9.02     0  02:12        2.14
  YS02001754           JUNCTION     0.48     2.16     8.76     0  02:12        2.15
  YS02001757           JUNCTION     0.66     2.21     8.47     0  02:08        2.21
  YS02001759           JUNCTION     0.61     2.21     8.57     0  02:08        2.21
  YS02001762           JUNCTION     0.60     2.15     8.55     0  02:08        2.15
  YS02001765           JUNCTION     0.57     2.10     8.55     0  02:18        2.08
  YS02001767           JUNCTION     0.56     2.03     8.52     0  02:18        2.01
  YS02001770           JUNCTION     0.57     1.95     8.44     0  01:53        1.95
  YS02001774           JUNCTION     0.62     2.05     8.47     0  02:18        2.05
  YS02001779           JUNCTION     0.45     1.68     8.37     0  01:53        1.68
  YS02001783           JUNCTION     0.20     1.35     7.49     0  01:49        1.25
  YS02001784           JUNCTION     0.21     1.22     7.29     0  01:49        1.10
  YS02001786           JUNCTION     0.18     0.92     6.95     0  01:49        0.86
  YS02001788           JUNCTION     0.13     0.62     6.60     0  01:50        0.62
  YS02001790           JUNCTION     0.15     0.72     6.36     0  01:52        0.71
  YS02001791           JUNCTION     0.10     0.44     5.91     0  01:54        0.42
  YS02001793           JUNCTION     0.05     0.30     5.13     0  01:55        0.29
  YS02001882           JUNCTION     0.25     1.83     8.55     0  01:48        1.61
  YS02001884           JUNCTION     0.33     1.93     8.55     0  01:48        1.71
  YS02001887           JUNCTION     0.41     1.99     8.52     0  01:48        1.78
  YS02001890           JUNCTION     0.44     1.81     8.32     0  01:48        1.81
  YS02001895           JUNCTION     0.22     1.75     8.50     0  01:48        1.55
  YS02001898           JUNCTION     0.23     1.77     8.51     0  01:48        1.55
  YS02001901           JUNCTION     0.33     1.87     8.48     0  01:48        1.73
  YS02001904           JUNCTION     0.31     1.78     8.41     0  01:48        1.67
  YS02001907           JUNCTION     0.61     1.96     8.25     0  01:49        1.96
  YS02001910           JUNCTION     0.42     2.02     8.53     0  01:50        1.86
  YS02001915           JUNCTION     0.25     1.98     8.70     0  01:50        1.71
  YS02001918           JUNCTION     0.13     1.81     8.88     0  01:50        1.39
  YS02001920           JUNCTION     0.20     2.11     9.12     0  01:50        1.45
  YS02001923           JUNCTION     0.09     2.03     9.29     0  01:50        1.20
  YS02001926           JUNCTION     0.13     1.90     9.35     0  01:50        1.01
  YS02001929           JUNCTION     0.07     1.78     9.47     0  01:50        0.76
  YS02006553           JUNCTION     0.61     2.02     8.30     0  01:49        1.96
  YS02006556           JUNCTION     0.59     2.05     8.36     0  01:49        1.92
  YS02006558           JUNCTION     0.63     2.10     8.37     0  01:49        1.95
  YS02006561           JUNCTION     0.12     1.07     7.73     0  01:49        0.87
  YS02163301           JUNCTION     0.72     2.03     8.55     0  02:18        2.03
  YS02163601           JUNCTION     0.80     2.08     8.48     0  01:53        2.08
  YS02164001           JUNCTION     0.74     2.08     8.54     0  01:53        2.08
  CC-1                 OUTFALL      0.00     0.00     0.00     0  00:00        0.00
  CC-2                 OUTFALL      0.00     0.00     0.00     0  00:00        0.00
  JK-1                 OUTFALL      0.00     0.00     0.00     0  00:00        0.00
  JK-2                 OUTFALL      0.00     0.00     0.00     0  00:00        0.00
  WSC                  OUTFALL      0.17     0.30     0.97     0  02:07        0.30
  CC-storage           STORAGE      1.01     2.17     7.67     0  02:47        2.17
  JK-storage           STORAGE      1.32     4.23     5.03     0  01:54        4.21
  
  
  *******************
  Node Inflow Summary
  *******************
  
  -------------------------------------------------------------------------------------------------
                                  Maximum  Maximum                  Lateral       Total        Flow
                                  Lateral    Total  Time of Max      Inflow      Inflow     Balance
                                   Inflow   Inflow   Occurrence      Volume      Volume       Error
  Node                 Type           LPS      LPS  days hr:min    10^6 ltr    10^6 ltr     Percent
  -------------------------------------------------------------------------------------------------
  WS02003060           JUNCTION     16.53   550.39     0  02:05       0.476        5.16       0.046
  WS02003066           JUNCTION      0.00   533.56     0  02:05           0        4.69       0.030
  WS02003067           JUNCTION      0.00   533.46     0  02:05           0         4.7       0.089
  WS02003069           JUNCTION      0.32   550.48     0  02:06     0.00922        5.17       0.079
  WS02003072           JUNCTION      0.00   550.01     0  02:06           0        5.17       0.141
  WS02003073           JUNCTION      1.82   551.56     0  02:07      0.0524        5.21       0.111
  WS02004401           JUNCTION      0.00  1786.15     0  00:00           0         4.8       0.231
  WS02004402           JUNCTION      0.00  1246.65     0  00:01           0        4.79       0.219
  WS02004403           JUNCTION      0.00   964.17     0  00:01           0        4.78       0.215
  WS02004404           JUNCTION      0.16   817.62     0  00:01     0.00467        4.77       0.194
  WS02004405           JUNCTION      0.04   871.94     0  00:01      0.0011        4.76       0.240
  WS02004406           JUNCTION      0.00   679.10     0  00:02           0        4.75       0.449
  WS02004407           JUNCTION      0.00   535.42     0  02:03           0        4.73       0.022
  WS02004409           JUNCTION      0.00   535.28     0  02:03           0        4.73       0.057
  WS02004410           JUNCTION      0.00   534.69     0  02:04           0        4.73       0.097
  WS02004411           JUNCTION      0.00   534.21     0  02:04           0        4.72       0.121
  WS02004412           JUNCTION      0.00   533.87     0  02:04           0        4.72       0.159
  WS02004413           JUNCTION      0.00   533.76     0  02:04           0        4.71       0.289
  WS02006109           JUNCTION      1.23  1308.01     0  00:00      0.0354        4.73       0.162
  WS02006110           JUNCTION      0.00   555.48     0  01:52           0         4.7      -0.775
  WS02006111           JUNCTION      0.00  1176.04     0  00:00           0        4.73      -0.813
  WS02006112           JUNCTION      0.00  2307.30     0  00:00           0        4.77       0.034
  WS02006113           JUNCTION      0.00   573.64     0  02:50           0        4.69      -1.041
  WS02006115           JUNCTION      0.00   896.63     0  00:00           0        4.74      -0.676
  WS02006116           JUNCTION      0.00  1199.08     0  00:01           0        4.78      -0.487
  WS02006228           JUNCTION      0.00   554.23     0  01:52           0        4.67       0.067
  WS02006229           JUNCTION      0.00   554.37     0  01:52           0        4.66       0.168
  WS02006230           JUNCTION     10.28   592.84     0  02:51       0.296        4.64       0.009
  WS02006231           JUNCTION      0.00   580.75     0  01:52           0        4.33      -0.100
  WS02006232           JUNCTION      0.00   579.24     0  01:52           0        4.34       0.200
  WS02006234           JUNCTION      0.00   573.09     0  01:52           0        4.33      -0.316
  WS02006235           JUNCTION      0.00   564.04     0  01:52           0        4.42       0.262
  WS02006238           JUNCTION      0.00   426.13     0  03:15           0         3.8      -0.076
  WS02006239           JUNCTION      0.00   425.42     0  03:10           0        3.74      -0.099
  WS02006240           JUNCTION      0.00   421.96     0  03:10           0         3.7      -0.016
  WS02006242           JUNCTION      0.00   424.24     0  02:51           0        3.69       0.028
  WS02006243           JUNCTION      0.00   425.61     0  02:51           0        3.68      -0.143
  WS02006245           JUNCTION      0.00   425.63     0  03:10           0        3.69       0.247
  WS02006247           JUNCTION      0.00   426.89     0  02:51           0        3.69       0.031
  WS02006248           JUNCTION      0.00   427.80     0  02:51           0        3.69      -0.009
  WS02006249           JUNCTION      0.00   427.60     0  02:51           0        3.83       0.276
  WS02006251           JUNCTION      0.08   407.71     0  03:00     0.00222        3.83      -0.001
  WS02006252           JUNCTION      0.00   400.00     0  01:31           0        3.81      -0.256
  WS02006256           JUNCTION      0.00   300.00     0  00:00           0       0.946      -3.441
  WSF200               JUNCTION      0.00   533.62     0  02:05           0        4.69       0.010
  YS02001580           JUNCTION      0.00    52.99     0  01:33           0     0.00442       3.621
  YS02001583           JUNCTION      0.00    92.98     0  01:33           0      0.0162      -3.763
  YS02001586           JUNCTION   3750.76  3750.76     0  02:13        5.84        5.86       0.009
  YS02001590           JUNCTION      0.00   318.85     0  02:50           0        2.14      -0.020
  YS02001593           JUNCTION      0.00   318.52     0  02:50           0        2.14       0.001
  YS02001596           JUNCTION      0.00   318.27     0  02:44           0        2.14      -0.013
  YS02001600           JUNCTION      0.00   318.39     0  01:57           0        2.14       0.014
  YS02001601           JUNCTION   5754.82  6072.39     0  02:13        7.51        9.65       0.007
  YS02001602           JUNCTION      0.00   498.67     0  01:33           0        3.14       0.019
  YS02001605           JUNCTION      0.00   498.27     0  01:33           0        2.85       0.025
  YS02001607           JUNCTION      0.00   497.74     0  01:33           0        2.85       0.059
  YS02001610           JUNCTION      0.00   955.18     0  02:20           0        4.24       0.051
  YS02001613           JUNCTION      0.00   618.27     0  02:21           0        2.99       0.054
  YS02001616           JUNCTION      0.00   619.80     0  02:19           0        2.99       0.008
  YS02001619           JUNCTION   6514.63  6514.63     0  02:13        9.27        10.9      -0.002
  YS02001622           JUNCTION      0.00  1054.13     0  02:24           0        6.45      -0.001
  YS02001625           JUNCTION      0.00  1505.57     0  02:24           0        7.48       0.162
  YS02001629           JUNCTION      0.00  1139.12     0  02:19           0        4.71      -0.013
  YS02001633           JUNCTION   4284.58  4284.58     0  02:13        5.66        8.61       0.043
  YS02001641           JUNCTION      0.00  1335.73     0  01:43           0        6.02       0.051
  YS02001644           JUNCTION   3809.19  5560.88     0  02:13         4.8        11.7       0.022
  YS02001647           JUNCTION      0.00  1672.38     0  01:43           0        6.84       0.004
  YS02001649           JUNCTION      0.00  3171.80     0  02:13           0        10.5       0.000
  YS02001652           JUNCTION      0.00  2429.29     0  02:11           0        4.34      -0.037
  YS02001655           JUNCTION      0.15  2731.44     0  02:15     0.00443        4.45       0.029
  YS02001658           JUNCTION      0.00  2783.77     0  02:14           0        4.47      -0.015
  YS02001661           JUNCTION      0.00  2783.57     0  02:14           0        4.46      -0.032
  YS02001664           JUNCTION   3645.42  3645.42     0  02:13        4.61        4.61       0.006
  YS02001745           JUNCTION   2193.83  2193.83     0  02:13        2.62        2.62       0.045
  YS02001748           JUNCTION      0.04  2194.04     0  02:13      0.0013        2.62      -0.100
  YS02001751           JUNCTION      0.01  2194.32     0  02:13    0.000317        2.62       0.035
  YS02001754           JUNCTION      0.26  2195.02     0  02:13     0.00749        2.63      -0.054
  YS02001757           JUNCTION      0.00  3613.98     0  02:13           0        16.4       0.028
  YS02001759           JUNCTION   3054.63  3054.63     0  02:13        3.76        5.85       0.001
  YS02001762           JUNCTION      0.00   721.50     0  02:14           0        2.53      -0.003
  YS02001765           JUNCTION      0.00   721.38     0  02:15           0        2.53      -0.002
  YS02001767           JUNCTION      0.54   721.91     0  02:15      0.0154        2.53       0.006
  YS02001770           JUNCTION   4460.22  5179.48     0  02:13        5.53        6.01      -0.020
  YS02001774           JUNCTION      0.00   852.30     0  02:23           0        1.55       0.059
  YS02001779           JUNCTION      0.01   851.93     0  02:21    0.000144         1.5      -0.033
  YS02001783           JUNCTION      0.00  1151.84     0  01:50           0        2.96       0.006
  YS02001784           JUNCTION      1.06  1152.99     0  01:50      0.0305        2.99       0.017
  YS02001786           JUNCTION      0.06  1153.11     0  01:50     0.00162        2.99       0.019
  YS02001788           JUNCTION      0.07  1160.48     0  01:49     0.00204        2.99       0.009
  YS02001790           JUNCTION      0.15  1171.94     0  01:50     0.00446           3       0.028
  YS02001791           JUNCTION      0.00  1275.69     0  01:52           0           3      -0.022
  YS02001793           JUNCTION      0.00  1241.77     0  01:54           0           3       0.006
  YS02001882           JUNCTION      0.00    68.83     0  01:48           0      0.0123       2.490
  YS02001884           JUNCTION      0.00   130.73     0  01:48           0      0.0481       4.776
  YS02001887           JUNCTION    515.31   526.35     0  01:49       0.746       0.779       0.555
  YS02001890           JUNCTION      0.00   536.94     0  01:49           0       0.739       0.675
  YS02001895           JUNCTION      0.00   545.69     0  01:49           0       0.732       0.153
  YS02001898           JUNCTION      0.00   552.14     0  01:49           0       0.731      -0.076
  YS02001901           JUNCTION      0.00   562.13     0  01:49           0       0.734       0.406
  YS02001904           JUNCTION      0.00   564.89     0  01:49           0       0.739       0.323
  YS02001907           JUNCTION      0.00  1478.31     0  01:51           0        2.24       0.780
  YS02001910           JUNCTION      0.00   985.60     0  01:51           0        1.51       0.487
  YS02001915           JUNCTION    531.81   985.29     0  01:51       0.912        1.56       0.064
  YS02001918           JUNCTION      0.00   578.85     0  01:49           0       0.677       0.009
  YS02001920           JUNCTION      2.87   480.07     0  01:49      0.0827       0.654       0.097
  YS02001923           JUNCTION      0.04   615.07     0  01:49     0.00109       0.556      -0.174
  YS02001926           JUNCTION      0.05   913.10     0  01:49      0.0015       0.534      -0.312
  YS02001929           JUNCTION    270.10   752.38     0  01:50       0.513       0.519      -0.218
  YS02006553           JUNCTION      0.00   787.33     0  02:01           0        1.98       0.587
  YS02006556           JUNCTION      0.00   788.41     0  02:01           0        1.98       0.382
  YS02006558           JUNCTION    645.94  1183.80     0  01:49        1.03        2.99       0.110
  YS02006561           JUNCTION      0.00  1182.16     0  01:49           0        2.96      -0.005
  YS02163301           JUNCTION      0.00  1138.98     0  02:19           0        4.72       0.035
  YS02163601           JUNCTION      0.11  1337.39     0  01:43     0.00317        6.01       0.085
  YS02164001           JUNCTION      0.00  1339.23     0  01:43           0        6.01       0.035
  CC-1                 OUTFALL       0.00   683.00     0  00:00           0        6.69       0.000
  CC-2                 OUTFALL       0.00   683.00     0  00:00           0        6.59       0.000
  JK-1                 OUTFALL       0.00  1000.00     0  00:05           0         1.2       0.000
  JK-2                 OUTFALL       0.00  1000.00     0  00:05           0       0.972       0.000
  WSC                  OUTFALL       0.00   551.17     0  02:07           0        5.21       0.000
  CC-storage           STORAGE       0.00  3045.45     0  01:55           0        18.5      -0.171
  JK-storage           STORAGE       0.00  1238.68     0  01:52           0        3.15      -0.522
  
  
  **********************
  Node Surcharge Summary
  **********************
  
  Surcharging occurs when water rises above the top of the highest conduit.
  ---------------------------------------------------------------------
                                               Max. Height   Min. Depth
                                   Hours       Above Crown    Below Rim
  Node                 Type      Surcharged         Meters       Meters
  ---------------------------------------------------------------------
  WS02006109           JUNCTION        2.27          0.450        1.370
  WS02006110           JUNCTION        0.42          0.390        1.460
  WS02006111           JUNCTION        0.01          0.087        1.783
  WS02006112           JUNCTION        0.38          1.680        0.000
  WS02006113           JUNCTION        0.01          0.600        1.330
  WS02006115           JUNCTION        0.01          0.642        1.608
  WS02006116           JUNCTION        0.01          0.000        2.290
  WS02006228           JUNCTION        2.26          0.376        1.824
  WS02006229           JUNCTION        2.27          0.379        2.071
  WS02006230           JUNCTION        0.43          0.250        1.320
  WS02006231           JUNCTION        0.54          0.709        0.821
  WS02006232           JUNCTION        2.29          0.788        0.692
  WS02006234           JUNCTION        0.98          1.010        0.230
  WS02006235           JUNCTION        2.21          0.860        0.430
  WS02006238           JUNCTION        2.26          0.907        0.523
  WS02006239           JUNCTION        2.23          0.960        0.330
  WS02006240           JUNCTION        2.25          0.970        0.420
  WS02006242           JUNCTION        2.32          0.820        0.000
  WS02006243           JUNCTION        2.26          0.770        0.000
  WS02006245           JUNCTION        2.26          0.850        0.000
  WS02006247           JUNCTION        2.27          0.760        0.000
  WS02006248           JUNCTION        2.25          0.380        0.000
  WS02006249           JUNCTION        2.27          0.390        0.000
  WS02006251           JUNCTION        0.62          0.363        0.817
  WS02006252           JUNCTION        2.45          1.100        0.000
  WS02006256           JUNCTION        5.99          2.050        0.000
  YS02001580           JUNCTION        1.44          0.292        0.158
  YS02001583           JUNCTION        1.44          0.260        0.240
  YS02001586           JUNCTION        1.56          0.510        0.000
  YS02001590           JUNCTION        1.64          0.748        0.002
  YS02001593           JUNCTION        1.64          0.695        0.145
  YS02001596           JUNCTION        1.76          0.975        0.095
  YS02001600           JUNCTION        1.89          1.190        0.000
  YS02001601           JUNCTION        2.13          1.440        0.000
  YS02001602           JUNCTION        2.07          1.270        0.000
  YS02001605           JUNCTION        2.04          1.180        0.000
  YS02001607           JUNCTION        1.65          0.680        0.000
  YS02001610           JUNCTION        1.67          0.680        0.000
  YS02001613           JUNCTION        1.64          0.695        0.005
  YS02001616           JUNCTION        1.60          0.610        0.000
  YS02001619           JUNCTION        1.59          0.610        0.000
  YS02001622           JUNCTION        1.59          0.620        0.000
  YS02001625           JUNCTION        1.78          0.780        0.000
  YS02001629           JUNCTION        1.51          0.470        0.000
  YS02001633           JUNCTION        1.84          1.060        0.000
  YS02001641           JUNCTION        1.79          1.052        0.048
  YS02001644           JUNCTION        1.76          0.920        0.000
  YS02001647           JUNCTION        1.48          0.795        0.105
  YS02001649           JUNCTION        1.60          1.050        0.000
  YS02001652           JUNCTION        1.41          1.122        0.008
  YS02001655           JUNCTION        1.28          1.200        0.000
  YS02001658           JUNCTION        0.98          1.300        0.000
  YS02001661           JUNCTION        0.43          1.371        0.019
  YS02001664           JUNCTION        0.24          1.310        0.000
  YS02001745           JUNCTION        0.23          1.040        0.310
  YS02001748           JUNCTION        0.82          1.122        0.068
  YS02001751           JUNCTION        1.21          1.143        0.057
  YS02001754           JUNCTION        1.36          1.106        0.044
  YS02001757           JUNCTION        1.67          1.210        0.000
  YS02001759           JUNCTION        1.59          1.210        0.000
  YS02001762           JUNCTION        1.56          1.150        0.000
  YS02001765           JUNCTION        1.52          1.100        0.000
  YS02001767           JUNCTION        1.49          1.030        0.000
  YS02001770           JUNCTION        1.47          0.920        0.000
  YS02001774           JUNCTION        1.54          1.050        0.000
  YS02001779           JUNCTION        1.35          0.680        0.000
  YS02001783           JUNCTION        0.34          0.554        1.046
  YS02001784           JUNCTION        0.32          0.421        1.069
  YS02001786           JUNCTION        0.24          0.119        1.311
  YS02001882           JUNCTION        0.30          0.830        0.000
  YS02001884           JUNCTION        0.31          0.870        0.000
  YS02001887           JUNCTION        0.34          0.936        0.014
  YS02001890           JUNCTION        0.35          0.760        0.000
  YS02001895           JUNCTION        0.29          0.750        0.000
  YS02001898           JUNCTION        0.28          0.740        0.000
  YS02001901           JUNCTION        0.32          0.870        0.000
  YS02001904           JUNCTION        0.32          0.783        0.067
  YS02001907           JUNCTION        0.51          0.950        0.000
  YS02001910           JUNCTION        0.37          1.021        0.079
  YS02001915           JUNCTION        0.30          0.979        0.021
  YS02001918           JUNCTION        0.22          0.810        0.000
  YS02001920           JUNCTION        0.23          1.108        0.032
  YS02001923           JUNCTION        0.01          0.820        0.000
  YS02001926           JUNCTION        0.01          0.900        0.000
  YS02001929           JUNCTION        0.01          0.780        0.000
  YS02006553           JUNCTION        0.52          1.017        0.173
  YS02006556           JUNCTION        0.44          1.008        0.342
  YS02006558           JUNCTION        0.43          0.998        0.402
  YS02006561           JUNCTION        0.19          0.270        0.880
  YS02163301           JUNCTION        1.81          1.030        0.000
  YS02163601           JUNCTION        1.89          1.080        0.000
  YS02164001           JUNCTION        1.79          1.084        0.016
  
  
  *********************
  Node Flooding Summary
  *********************
  
  Flooding refers to all water that overflows a node, whether it ponds or not.
  --------------------------------------------------------------------------
                                                             Total   Maximum
                                 Maximum   Time of Max       Flood    Ponded
                        Hours       Rate    Occurrence      Volume     Depth
  Node                 Flooded       LPS   days hr:min    10^6 ltr    Meters
  --------------------------------------------------------------------------
  WS02006112              0.01   1547.89      0  00:00       0.047     0.000
  WS02006242              0.01     11.27      0  03:17       0.000     0.000
  WS02006243              0.01      2.03      0  02:18       0.000     0.000
  WS02006245              0.01      3.15      0  02:18       0.000     0.000
  WS02006247              0.01      3.88      0  02:18       0.000     0.000
  WS02006248              0.02     21.12      0  02:51       0.001     0.000
  WS02006249              0.57     81.54      0  02:29       0.130     0.000
  WS02006252              0.01      0.91      0  01:31       0.000     0.000
  WS02006256              0.87    289.73      0  03:11       0.321     0.000
  YS02001586              1.25   3430.96      0  02:13       3.705     0.000
  YS02001600              0.01      0.98      0  01:33       0.000     0.000
  YS02001601              1.51   5670.58      0  02:13       6.501     0.000
  YS02001602              1.35     62.10      0  02:51       0.292     0.000
  YS02001605              0.01      0.63      0  01:33       0.000     0.000
  YS02001607              0.01      0.49      0  02:18       0.000     0.000
  YS02001610              1.28    954.59      0  02:20       2.638     0.000
  YS02001616              0.09      4.14      0  02:19       0.000     0.000
  YS02001619              0.46   4839.72      0  02:13       3.028     0.000
  YS02001622              0.01      1.02      0  02:18       0.000     0.000
  YS02001625              1.28   1505.31      0  02:24       4.523     0.000
  YS02001629              0.50    686.90      0  02:19       0.736     0.000
  YS02001633              0.21   2238.48      0  02:13       0.832     0.000
  YS02001644              0.80   5558.47      0  02:13       5.688     0.000
  YS02001649              0.21   2324.46      0  02:13       1.094     0.000
  YS02001655              0.12    303.29      0  02:14       0.111     0.000
  YS02001658              0.09     52.18      0  02:14       0.016     0.000
  YS02001664              0.09    860.32      0  02:13       0.144     0.000
  YS02001757              0.01     22.70      0  02:12       0.000     0.000
  YS02001759              0.10    915.82      0  02:13       0.161     0.000
  YS02001762              0.04     34.63      0  02:18       0.000     0.000
  YS02001765              0.01     28.02      0  02:18       0.000     0.000
  YS02001767              0.01     26.55      0  02:18       0.000     0.000
  YS02001770              0.36   4325.77      0  02:13       2.411     0.000
  YS02001774              0.01      1.38      0  02:18       0.000     0.000
  YS02001779              0.70    851.57      0  02:21       1.483     0.000
  YS02001882              0.01     21.78      0  01:48       0.000     0.000
  YS02001884              0.01     29.66      0  01:48       0.000     0.000
  YS02001890              0.02    160.18      0  01:48       0.001     0.000
  YS02001895              0.01     70.85      0  01:48       0.000     0.000
  YS02001898              0.01    218.62      0  01:48       0.000     0.000
  YS02001901              0.01     79.71      0  01:48       0.000     0.000
  YS02001907              0.17    971.66      0  01:51       0.257     0.000
  YS02001918              0.01    220.73      0  01:50       0.003     0.000
  YS02001923              0.01    413.28      0  01:50       0.002     0.000
  YS02001926              0.01    347.20      0  01:50       0.002     0.000
  YS02001929              0.01    358.94      0  01:50       0.001     0.000
  YS02163301              0.01      0.83      0  02:18       0.000     0.000
  YS02163601              0.01      1.46      0  01:53       0.000     0.000
  
  
  **********************
  Storage Volume Summary
  **********************
  
  --------------------------------------------------------------------------------------------------
                         Average     Avg  Evap Exfil       Maximum     Max    Time of Max    Maximum
                          Volume    Pcnt  Pcnt  Pcnt        Volume    Pcnt     Occurrence    Outflow
  Storage Unit           1000 m3    Full  Loss  Loss       1000 m3    Full    days hr:min        LPS
  --------------------------------------------------------------------------------------------------
  CC-storage               2.803      44     0     0         6.040      94       0  02:47    1766.00
  JK-storage               0.066      23     0     0         0.213      73       0  01:54    2300.00
  
  
  ***********************
  Outfall Loading Summary
  ***********************
  
  -----------------------------------------------------------
                         Flow       Avg       Max       Total
                         Freq      Flow      Flow      Volume
  Outfall Node           Pcnt       LPS       LPS    10^6 ltr
  -----------------------------------------------------------
  CC-1                  52.91    683.00    683.00       6.691
  CC-2                  52.16    683.00    683.00       6.590
  JK-1                   6.81   1000.00   1000.00       1.199
  JK-2                   4.76   1000.00   1000.00       0.972
  WSC                   99.99    236.35    551.17       5.207
  -----------------------------------------------------------
  System                43.33   3602.35    551.17      20.659
  
  
  ********************
  Link Flow Summary
  ********************
  
  -----------------------------------------------------------------------------
                                 Maximum  Time of Max   Maximum    Max/    Max/
                                  |Flow|   Occurrence   |Veloc|    Full    Full
  Link                 Type          LPS  days hr:min     m/sec    Flow   Depth
  -----------------------------------------------------------------------------
  1                    CONDUIT    551.17     0  02:07      2.82    0.19    0.30
  WS02003060WS02003069 CONDUIT    550.16     0  02:06      1.64    0.22    0.34
  WS02003066WSF200     CONDUIT    533.62     0  02:05      2.85    0.09    0.22
  WS02003067WS02003066 CONDUIT    533.56     0  02:05      1.20    0.17    0.41
  WS02003069WS02003072 CONDUIT    550.01     0  02:06      1.37    0.26    0.39
  WS02003072WS02003073 CONDUIT    549.74     0  02:07      1.43    1.19    0.37
  WS02004401WS02004402 CONDUIT   1246.65     0  00:01      2.61    1.50    0.86
  WS02004402WS02004403 CONDUIT    964.17     0  00:01      2.34    1.39    0.88
  WS02004403WS02004404 CONDUIT    817.45     0  00:01      2.07    0.59    0.93
  WS02004404WS02004405 CONDUIT    871.90     0  00:01      2.69    8.54    0.96
  WS02004405WS02004406 CONDUIT    679.10     0  00:02      2.33    1.34    0.95
  WS02004406WS02004407 CONDUIT    535.42     0  02:03      1.04    0.24    0.63
  WS02004407WS02004409 CONDUIT    535.28     0  02:03      1.96    0.19    0.48
  WS02004409WS02004410 CONDUIT    534.69     0  02:04      1.29    0.69    0.67
  WS02004410WS02004411 CONDUIT    534.21     0  02:04      1.17    0.73    0.68
  WS02004411WS02004412 CONDUIT    533.87     0  02:04      1.10    0.76    0.69
  WS02004412WS02004413 CONDUIT    533.76     0  02:04      1.10    0.36    0.78
  WS02004413WS02003067 CONDUIT    533.46     0  02:05      1.11    0.23    0.59
  WS02006109WS02006110 CONDUIT   1306.78     0  00:00      3.14    2.51    1.00
  WS02006110WS02006113 CONDUIT    573.64     0  02:50      1.39    0.52    1.00
  WS02006111WS02006112 CONDUIT   2307.30     0  00:00      9.18    1.10    0.91
  WS02006112WS02006115 CONDUIT    896.63     0  00:00      1.16    0.53    1.00
  WS02006113WS02006111 CONDUIT   1176.04     0  00:00      2.47    1.41    1.00
  WS02006115WS02006116 CONDUIT   1199.08     0  00:01      1.84    1.54    1.00
  WS02006116WS02004401 CONDUIT   1786.15     0  00:00      3.17    2.46    0.84
  WS02006228WS02006109 CONDUIT    553.65     0  01:52      1.40    2.42    1.00
  WS02006229WS02006228 CONDUIT    554.23     0  01:52      1.25    1.84    1.00
  WS02006230WS02006229 CONDUIT    554.37     0  01:52      1.44   12.34    1.00
  WS02006231WS02006230 CONDUIT    582.56     0  02:51      1.58    8.84    1.00
  WS02006232WS02006231 CONDUIT    580.75     0  01:52      1.52    1.22    1.00
  WS02006234WS02006232 CONDUIT    579.24     0  01:52      1.51    1.17    1.00
  WS02006235WS02006234 CONDUIT    573.09     0  01:52      1.49    6.05    1.00
  WS02006238WS02006235 CONDUIT    439.60     0  03:14      1.60    0.98    1.00
  WS02006239WS02006238 CONDUIT    426.13     0  03:15      1.11    1.36    1.00
  WS02006240WS02006239 CONDUIT    425.42     0  03:10      1.17    1.34    1.00
  WS02006242WS02006240 CONDUIT    421.96     0  03:10      1.11    1.68    1.00
  WS02006243WS02006242 CONDUIT    424.24     0  02:51      1.20    0.91    1.00
  WS02006245WS02006243 CONDUIT    425.61     0  02:51      1.36    1.26    1.00
  WS02006247WS02006245 CONDUIT    425.63     0  03:10      1.28    3.37    1.00
  WS02006248WS02006247 CONDUIT    426.89     0  02:51      1.31    0.93    1.00
  WS02006249WS02006248 CONDUIT    427.80     0  02:51      1.33    2.34    1.00
  WS02006251WS02006249 CONDUIT    427.60     0  02:51      1.75    1.23    1.00
  WS02006252WS02006251 CONDUIT    407.63     0  03:00     15.67    1.50    1.00
  WS02006256WS02006235 CONDUIT    289.10     0  00:01      4.25    3.06    1.00
  WSF200WS02003060     CONDUIT    533.87     0  02:05      2.06    0.12    0.28
  YS02001580YS02001583 CONDUIT     52.99     0  01:33      0.45    0.21    1.00
  YS02001583YS02001586 CONDUIT     92.98     0  01:33      0.37    0.14    1.00
  YS02001586YS02001590 CONDUIT    318.85     0  02:50      1.25    0.56    1.00
  YS02001590YS02001593 CONDUIT    318.52     0  02:50      1.13    2.00    1.00
  YS02001593YS02001596 CONDUIT    318.27     0  02:44      1.69    0.50    1.00
  YS02001596YS02001600 CONDUIT    318.39     0  01:57      1.24    0.62    1.00
  YS02001600YS02001601 CONDUIT    318.68     0  02:51      1.13    0.55    1.00
  YS02001601YS02001602 CONDUIT    498.67     0  01:33      1.76    1.80    1.00
  YS02001602YS02001605 CONDUIT    498.27     0  01:33      1.76   10.54    1.00
  YS02001605YS02001607 CONDUIT    497.74     0  01:33      1.76    2.73    1.00
  YS02001607YS02001610 CONDUIT    496.40     0  01:33      0.63    0.47    1.00
  YS02001610YS02001613 CONDUIT    618.92     0  02:20      0.79    0.71    1.00
  YS02001613YS02001616 CONDUIT    618.27     0  02:21      0.79    0.53    1.00
  YS02001616YS02001619 CONDUIT    619.80     0  02:19      0.79    1.08    1.00
  YS02001619YS02001622 CONDUIT   1054.13     0  02:24      1.34    1.55    1.00
  YS02001622YS02001625 CONDUIT   1053.78     0  02:24      1.34    0.56    1.00
  YS02001625YS02001629 CONDUIT    936.02     0  01:42      1.19    0.45    1.00
  YS02001629YS02163301 CONDUIT   1139.12     0  02:19      1.45    1.40    1.00
  YS02001633YS02163601 CONDUIT   1337.28     0  01:43      1.70    1.40    1.00
  YS02001641YS02001644 CONDUIT   1335.42     0  01:43      1.70    4.32    1.00
  YS02001644YS02001647 CONDUIT   1672.38     0  01:43      2.16    0.98    1.00
  YS02001647YS02001649 CONDUIT   1671.66     0  01:43      2.29    0.88    1.00
  YS02001649YS02001757 CONDUIT   1925.30     0  01:44      2.51    1.17    1.00
  YS02001652YS02001649 CONDUIT   2429.37     0  02:14      3.09    1.20    1.00
  YS02001655YS02001652 CONDUIT   2429.29     0  02:11      3.09    1.18    1.00
  YS02001658YS02001655 CONDUIT   2731.29     0  02:15      3.48    1.16    1.00
  YS02001661YS02001658 CONDUIT   2783.77     0  02:14      3.54    1.09    1.00
  YS02001664YS02001661 CONDUIT   2783.57     0  02:14      3.54    0.87    1.00
  YS02001745YS02001748 CONDUIT   2193.99     0  02:13      2.79    0.84    1.00
  YS02001748YS02001751 CONDUIT   2194.31     0  02:13      2.79    1.11    1.00
  YS02001751YS02001754 CONDUIT   2194.76     0  02:13      2.79    1.06    1.00
  YS02001754YS02001757 CONDUIT   2195.54     0  02:13      2.80    0.88    1.00
  YS02001757CaochengTiaoxuchi CONDUIT   3045.45     0  01:55      3.88    1.32    1.00
  YS02001759YS02001757 CONDUIT   1586.40     0  02:15      2.02    1.13    1.00
  YS02001762YS02001759 CONDUIT    721.50     0  02:14      0.92    0.83    1.00
  YS02001765YS02001762 CONDUIT    721.38     0  02:15      0.92    0.68    1.00
  YS02001767YS02001765 CONDUIT    721.38     0  02:15      0.92    0.91    1.00
  YS02001770YS02001767 CONDUIT    721.91     0  02:15      0.92    2.86    1.00
  YS02001774YS02001770 CONDUIT    852.30     0  02:23      1.09    0.54    1.00
  YS02001779YS02001774 CONDUIT    851.92     0  02:21      1.08    0.43    1.00
  YS02001783YS02001784 CONDUIT   1151.93     0  01:50      2.29    1.59    1.00
  YS02001784YS02001785 CONDUIT   1153.06     0  01:50      2.29    2.68    1.00
  YS02001786YS02001788 CONDUIT   1160.41     0  01:49      2.50    2.24    0.89
  YS02001788YS02001790 CONDUIT   1171.78     0  01:50      2.71    0.86    0.83
  YS02001790YS02001791 CONDUIT   1275.69     0  01:52      3.42    1.39    0.70
  YS02001791YS02001793 CONDUIT   1241.77     0  01:54      6.73    0.53    0.44
  YS02001793JiankangQianchi CONDUIT   1238.68     0  01:52      2.49    0.10    0.65
  YS02001882YS02001884 CONDUIT     68.83     0  01:48      0.12    0.08    1.00
  YS02001884YS02001887 CONDUIT    130.73     0  01:48      0.17    0.17    1.00
  YS02001887YS02001890 CONDUIT    536.94     0  01:49      0.68    0.92    1.00
  YS02001890YS02001895 CONDUIT    545.69     0  01:49      0.69    0.25    1.00
  YS02001895YS02001898 CONDUIT    552.14     0  01:49      0.70    0.96    1.00
  YS02001898YS02001901 CONDUIT    562.13     0  01:49      0.72    0.36    1.00
  YS02001901YS02001904 CONDUIT    564.89     0  01:49      0.72    0.88    1.00
  YS02001904YS02001907 CONDUIT    566.63     0  01:49      0.72    0.20    1.00
  YS02001907YS02006553 CONDUIT    787.33     0  02:01      0.87    0.93    1.00
  YS02001910YS02001907 CONDUIT    985.53     0  01:51      1.25    0.56    1.00
  YS02001915YS02001910 CONDUIT    985.60     0  01:51      1.25    0.49    1.00
  YS02001918YS02001915 CONDUIT    578.85     0  01:49      0.78    0.32    1.00
  YS02001920YS02001918 CONDUIT    477.20     0  01:49      0.66    0.46    1.00
  YS02001923YS02001920 CONDUIT    480.83     0  01:49      0.77    0.22    1.00
  YS02001926YS02001923 CONDUIT    676.52     0  01:49      1.12    0.97    1.00
  YS02001929YS02001926 CONDUIT    496.20     0  01:50      1.20    0.24    1.00
  YS02006553YS02006556 CONDUIT    788.41     0  02:01      1.00    0.67    1.00
  YS02006556YS02006558 CONDUIT    790.73     0  02:01      1.01    0.62    1.00
  YS02006558YS02006561 CONDUIT   1182.16     0  01:49      4.18    2.61    1.00
  YS02006561YS02001783 CONDUIT   1151.84     0  01:50      2.29    0.60    1.00
  YS02163301YS02001633 CONDUIT   1138.98     0  02:19      1.45    1.07    1.00
  YS02163601YS02164001 CONDUIT   1339.23     0  01:43      1.71    1.19    1.00
  YS02164001YS02001641 CONDUIT   1335.73     0  01:43      1.70    1.82    1.00
  CC-R1                PUMP       683.00     0  00:00              1.00
  CC-R2                PUMP       683.00     0  00:00              1.00
  CC-S1                PUMP       200.00     0  00:00              1.00
  CC-S2                PUMP       200.00     0  01:31              1.00
  JK-R1                PUMP      1000.00     0  00:05              1.00
  JK-R2                PUMP      1000.00     0  00:05              1.00
  JK-S                 PUMP       300.00     0  00:00              1.00
  
  
  ***************************
  Flow Classification Summary
  ***************************
  
  -------------------------------------------------------------------------------------
                      Adjusted    ---------- Fraction of Time in Flow Class ---------- 
                       /Actual         Up    Down  Sub   Sup   Up    Down  Norm  Inlet 
  Conduit               Length    Dry  Dry   Dry   Crit  Crit  Crit  Crit  Ltd   Ctrl  
  -------------------------------------------------------------------------------------
  1                       1.00   0.00  0.00  0.00  0.00  1.00  0.00  0.00  0.38  0.00
  WS02003060WS02003069    1.00   0.00  0.00  0.00  0.94  0.06  0.00  0.00  0.68  0.00
  WS02003066WSF200        1.00   0.07  0.00  0.00  0.00  0.93  0.00  0.00  0.90  0.00
  WS02003067WS02003066    1.00   0.05  0.02  0.00  0.93  0.00  0.00  0.00  0.00  0.00
  WS02003069WS02003072    1.00   0.00  0.00  0.00  0.98  0.02  0.00  0.00  0.69  0.00
  WS02003072WS02003073    1.00   0.00  0.00  0.00  0.00  0.00  0.00  1.00  0.00  0.00
  WS02004401WS02004402    1.00   0.00  0.00  0.00  1.00  0.00  0.00  0.00  0.00  0.00
  WS02004402WS02004403    1.00   0.00  0.00  0.00  1.00  0.00  0.00  0.00  0.00  0.00
  WS02004403WS02004404    1.00   0.00  0.00  0.00  1.00  0.00  0.00  0.00  0.00  0.00
  WS02004404WS02004405    1.00   0.00  0.00  0.00  1.00  0.00  0.00  0.00  0.01  0.00
  WS02004405WS02004406    1.00   0.00  0.00  0.00  1.00  0.00  0.00  0.00  0.00  0.00
  WS02004406WS02004407    1.00   0.00  0.01  0.00  0.99  0.00  0.00  0.00  0.00  0.00
  WS02004407WS02004409    1.00   0.02  0.00  0.00  0.96  0.02  0.00  0.00  0.99  0.00
  WS02004409WS02004410    1.00   0.02  0.00  0.00  0.98  0.00  0.00  0.00  0.00  0.00
  WS02004410WS02004411    1.00   0.02  0.00  0.00  0.98  0.00  0.00  0.00  0.00  0.00
  WS02004411WS02004412    1.00   0.02  0.00  0.00  0.98  0.00  0.00  0.00  0.00  0.00
  WS02004412WS02004413    1.00   0.03  0.00  0.00  0.97  0.01  0.00  0.00  0.00  0.00
  WS02004413WS02003067    1.00   0.03  0.02  0.00  0.00  0.00  0.95  0.00  0.00  0.00
  WS02006109WS02006110    1.00   0.00  0.00  0.00  1.00  0.00  0.00  0.00  0.00  0.00
  WS02006110WS02006113    1.00   0.00  0.00  0.00  1.00  0.00  0.00  0.00  0.00  0.00
  WS02006111WS02006112    1.00   0.00  0.00  0.00  1.00  0.00  0.00  0.00  1.00  0.00
  WS02006112WS02006115    1.00   0.00  0.00  0.00  1.00  0.00  0.00  0.00  0.00  0.00
  WS02006113WS02006111    1.00   0.00  0.00  0.00  0.02  0.98  0.00  0.00  0.13  0.00
  WS02006115WS02006116    1.00   0.00  0.00  0.00  1.00  0.00  0.00  0.00  0.00  0.00
  WS02006116WS02004401    1.00   0.00  0.00  0.00  1.00  0.00  0.00  0.00  0.00  0.00
  WS02006228WS02006109    1.00   0.00  0.00  0.00  1.00  0.00  0.00  0.00  0.00  0.00
  WS02006229WS02006228    1.00   0.00  0.00  0.00  1.00  0.00  0.00  0.00  0.00  0.00
  WS02006230WS02006229    1.00   0.00  0.00  0.00  1.00  0.00  0.00  0.00  0.02  0.00
  WS02006231WS02006230    1.00   0.01  0.00  0.00  0.44  0.00  0.56  0.00  0.00  0.00
  WS02006232WS02006231    1.00   0.00  0.01  0.00  0.98  0.00  0.01  0.00  0.00  0.00
  WS02006234WS02006232    1.00   0.00  0.00  0.00  0.99  0.01  0.00  0.00  0.03  0.00
  WS02006235WS02006234    1.00   0.00  0.00  0.00  0.87  0.00  0.13  0.00  0.00  0.00
  WS02006238WS02006235    1.00   0.00  0.00  0.00  0.99  0.01  0.00  0.00  0.00  0.00
  WS02006239WS02006238    1.00   0.00  0.00  0.00  1.00  0.00  0.00  0.00  0.26  0.00
  WS02006240WS02006239    1.00   0.01  0.00  0.00  0.77  0.00  0.00  0.23  0.05  0.00
  WS02006242WS02006240    1.00   0.01  0.00  0.00  0.97  0.00  0.02  0.00  0.00  0.00
  WS02006243WS02006242    1.00   0.01  0.00  0.00  0.96  0.00  0.00  0.03  0.59  0.00
  WS02006245WS02006243    1.00   0.01  0.00  0.00  0.80  0.00  0.00  0.19  0.01  0.00
  WS02006247WS02006245    1.00   0.00  0.00  0.00  0.94  0.00  0.00  0.05  0.00  0.00
  WS02006248WS02006247    1.00   0.00  0.00  0.00  0.97  0.00  0.00  0.03  0.42  0.00
  WS02006249WS02006248    1.00   0.00  0.00  0.00  0.64  0.00  0.36  0.00  0.00  0.00
  WS02006251WS02006249    1.00   0.00  0.00  0.00  0.99  0.01  0.00  0.00  0.60  0.00
  WS02006252WS02006251    1.00   0.00  0.35  0.00  0.11  0.00  0.54  0.00  0.00  0.00
  WS02006256WS02006235    1.00   0.00  0.00  0.00  0.98  0.02  0.00  0.00  0.00  0.00
  WSF200WS02003060        1.00   0.00  0.07  0.00  0.32  0.61  0.00  0.00  0.66  0.00
  YS02001580YS02001583    1.00   0.21  0.38  0.00  0.41  0.00  0.00  0.00  0.61  0.00
  YS02001583YS02001586    1.00   0.32  0.15  0.00  0.53  0.00  0.01  0.00  0.61  0.00
  YS02001586YS02001590    1.00   0.15  0.00  0.00  0.63  0.02  0.00  0.19  0.28  0.00
  YS02001590YS02001593    1.00   0.15  0.00  0.00  0.34  0.00  0.51  0.00  0.00  0.00
  YS02001593YS02001596    1.00   0.16  0.00  0.00  0.35  0.01  0.00  0.48  0.02  0.00
  YS02001596YS02001600    1.00   0.16  0.00  0.00  0.40  0.01  0.00  0.44  0.03  0.00
  YS02001600YS02001601    1.00   0.15  0.00  0.00  0.84  0.00  0.00  0.00  0.56  0.00
  YS02001601YS02001602    1.00   0.15  0.00  0.00  0.84  0.00  0.00  0.00  0.00  0.00
  YS02001602YS02001605    1.00   0.16  0.00  0.00  0.84  0.00  0.00  0.00  0.00  0.00
  YS02001605YS02001607    1.00   0.16  0.00  0.00  0.84  0.00  0.00  0.00  0.00  0.00
  YS02001607YS02001610    1.00   0.16  0.00  0.00  0.84  0.00  0.00  0.00  0.00  0.00
  YS02001610YS02001613    1.00   0.16  0.00  0.00  0.84  0.00  0.00  0.00  0.00  0.00
  YS02001613YS02001616    1.00   0.15  0.00  0.00  0.85  0.00  0.00  0.00  0.00  0.00
  YS02001616YS02001619    1.00   0.15  0.00  0.00  0.85  0.00  0.00  0.00  0.00  0.00
  YS02001619YS02001622    1.00   0.15  0.00  0.00  0.85  0.00  0.00  0.00  0.30  0.00
  YS02001622YS02001625    1.00   0.15  0.00  0.00  0.84  0.00  0.00  0.00  0.01  0.00
  YS02001625YS02001629    1.00   0.16  0.01  0.00  0.40  0.00  0.43  0.00  0.00  0.00
  YS02001629YS02163301    1.00   0.16  0.00  0.00  0.84  0.00  0.00  0.00  0.00  0.00
  YS02001633YS02163601    1.00   0.00  0.02  0.00  0.98  0.00  0.00  0.00  0.13  0.00
  YS02001641YS02001644    1.00   0.00  0.02  0.00  0.98  0.00  0.00  0.00  0.00  0.00
  YS02001644YS02001647    1.00   0.00  0.16  0.00  0.84  0.00  0.00  0.00  0.00  0.00
  YS02001647YS02001649    1.00   0.00  0.16  0.00  0.63  0.21  0.00  0.00  0.55  0.00
  YS02001649YS02001757    1.00   0.00  0.00  0.00  0.80  0.20  0.00  0.00  0.40  0.00
  YS02001652YS02001649    1.00   0.00  0.00  0.00  0.99  0.01  0.00  0.00  0.66  0.00
  YS02001655YS02001652    1.00   0.00  0.00  0.00  0.44  0.00  0.00  0.56  0.04  0.00
  YS02001658YS02001655    1.00   0.00  0.16  0.00  0.73  0.11  0.00  0.00  0.58  0.00
  YS02001661YS02001658    1.00   0.16  0.00  0.00  0.51  0.33  0.00  0.00  0.60  0.00
  YS02001664YS02001661    1.00   0.15  0.00  0.00  0.73  0.12  0.00  0.00  0.76  0.00
  YS02001745YS02001748    1.00   0.00  0.00  0.00  0.29  0.01  0.00  0.71  0.04  0.00
  YS02001748YS02001751    1.00   0.00  0.00  0.00  0.90  0.10  0.00  0.00  0.69  0.00
  YS02001751YS02001754    1.00   0.00  0.00  0.00  0.41  0.02  0.00  0.57  0.04  0.00
  YS02001754YS02001757    1.00   0.00  0.00  0.00  1.00  0.00  0.00  0.00  0.70  0.00
  YS02001757CaochengTiaoxuchi    1.00   0.00  0.00  0.00  0.91  0.09  0.00  0.00  0.67  0.00
  YS02001759YS02001757    1.00   0.00  0.00  0.00  0.99  0.01  0.00  0.00  0.58  0.00
  YS02001762YS02001759    1.00   0.00  0.00  0.00  1.00  0.00  0.00  0.00  0.02  0.00
  YS02001765YS02001762    1.00   0.00  0.00  0.00  1.00  0.00  0.00  0.00  0.64  0.00
  YS02001767YS02001765    1.00   0.00  0.00  0.00  1.00  0.00  0.00  0.00  0.00  0.00
  YS02001770YS02001767    1.00   0.00  0.00  0.00  1.00  0.00  0.00  0.00  0.00  0.00
  YS02001774YS02001770    1.00   0.00  0.15  0.00  0.73  0.00  0.12  0.00  0.01  0.00
  YS02001779YS02001774    1.00   0.00  0.00  0.00  1.00  0.00  0.00  0.00  0.67  0.00
  YS02001783YS02001784    1.00   0.00  0.20  0.00  0.80  0.00  0.00  0.00  0.58  0.00
  YS02001784YS02001785    1.00   0.00  0.00  0.00  1.00  0.00  0.00  0.00  0.17  0.00
  YS02001786YS02001788    1.00   0.00  0.00  0.00  0.72  0.28  0.00  0.00  0.00  0.00
  YS02001788YS02001790    1.00   0.00  0.00  0.00  0.25  0.75  0.00  0.00  0.85  0.00
  YS02001790YS02001791    1.00   0.00  0.00  0.00  0.05  0.95  0.00  0.00  0.16  0.00
  YS02001791YS02001793    1.00   0.00  0.00  0.00  0.00  1.00  0.00  0.00  0.01  0.00
  YS02001793JiankangQianchi    1.00   0.00  0.00  0.00  0.98  0.02  0.00  0.00  0.98  0.00
  YS02001882YS02001884    1.00   0.17  0.01  0.00  0.83  0.00  0.00  0.00  0.00  0.00
  YS02001884YS02001887    1.00   0.12  0.03  0.00  0.85  0.00  0.00  0.00  0.00  0.00
  YS02001887YS02001890    1.00   0.00  0.01  0.00  0.91  0.00  0.08  0.00  0.00  0.00
  YS02001890YS02001895    1.00   0.01  0.17  0.00  0.82  0.00  0.00  0.00  0.00  0.00
  YS02001895YS02001898    1.00   0.18  0.00  0.00  0.78  0.00  0.04  0.00  0.00  0.00
  YS02001898YS02001901    1.00   0.18  0.00  0.00  0.82  0.00  0.00  0.00  0.01  0.00
  YS02001901YS02001904    1.00   0.18  0.00  0.00  0.82  0.00  0.00  0.00  0.00  0.00
  YS02001904YS02001907    1.00   0.00  0.18  0.00  0.82  0.00  0.00  0.00  0.00  0.00
  YS02001907YS02006553    1.00   0.00  0.06  0.00  0.94  0.00  0.00  0.00  0.00  0.00
  YS02001910YS02001907    1.00   0.00  0.00  0.00  0.92  0.01  0.00  0.07  0.12  0.00
  YS02001915YS02001910    1.00   0.00  0.00  0.00  0.97  0.03  0.00  0.00  0.17  0.00
  YS02001918YS02001915    1.00   0.00  0.00  0.00  0.96  0.04  0.00  0.00  0.79  0.00
  YS02001920YS02001918    1.00   0.00  0.00  0.00  1.00  0.00  0.00  0.00  0.01  0.00
  YS02001923YS02001920    1.00   0.00  0.00  0.00  1.00  0.00  0.00  0.00  0.95  0.00
  YS02001926YS02001923    1.00   0.00  0.13  0.00  0.06  0.00  0.82  0.00  0.00  0.00
  YS02001929YS02001926    1.00   0.00  0.15  0.00  0.85  0.00  0.00  0.00  0.84  0.00
  YS02006553YS02006556    1.00   0.04  0.00  0.00  0.96  0.00  0.00  0.00  0.03  0.00
  YS02006556YS02006558    1.00   0.00  0.01  0.00  0.99  0.00  0.00  0.00  0.00  0.00
  YS02006558YS02006561    1.00   0.20  0.00  0.00  0.05  0.75  0.00  0.00  0.19  0.00
  YS02006561YS02001783    1.00   0.20  0.00  0.00  0.09  0.71  0.00  0.00  0.72  0.00
  YS02163301YS02001633    1.00   0.00  0.16  0.00  0.84  0.00  0.00  0.00  0.00  0.00
  YS02163601YS02164001    1.00   0.00  0.13  0.00  0.87  0.00  0.00  0.00  0.00  0.00
  YS02164001YS02001641    1.00   0.03  0.11  0.00  0.87  0.00  0.00  0.00  0.05  0.00
  
  
  *************************
  Conduit Surcharge Summary
  *************************
  
  ----------------------------------------------------------------------------
                                                           Hours        Hours 
                         --------- Hours Full --------   Above Full   Capacity
  Conduit                Both Ends  Upstream  Dnstream   Normal Flow   Limited
  ----------------------------------------------------------------------------
  WS02003072WS02003073        0.01      0.01      0.01      0.98         0.01
  WS02004401WS02004402        0.01      0.01      0.01      0.01         0.01
  WS02004402WS02004403        0.01      0.01      0.01      0.01         0.01
  WS02004404WS02004405        0.01      0.01      0.01      3.16         0.01
  WS02004405WS02004406        0.01      0.01      0.01      0.30         0.01
  WS02006109WS02006110        0.41      0.42      2.29      0.50         0.01
  WS02006110WS02006113        0.01      0.01      2.29      0.01         0.01
  WS02006111WS02006112        0.01      0.01      2.43      0.01         0.01
  WS02006112WS02006115        0.01      0.01      0.37      0.01         0.01
  WS02006113WS02006111        0.01      0.01      0.01      0.01         0.01
  WS02006115WS02006116        0.01      0.01      0.01      0.01         0.01
  WS02006116WS02004401        0.01      0.01      0.01      0.01         0.01
  WS02006228WS02006109        2.27      2.29      2.27      2.55         2.27
  WS02006229WS02006228        2.26      2.27      2.26      2.44         2.24
  WS02006230WS02006229        2.34      2.40      2.34      3.36         2.34
  WS02006231WS02006230        0.42      0.42      0.60      3.14         0.01
  WS02006232WS02006231        0.53      0.53      2.29      0.63         0.01
  WS02006234WS02006232        2.16      2.16      2.29      0.60         0.65
  WS02006235WS02006234        0.96      0.97      2.20      2.97         0.04
  WS02006238WS02006235        2.23      2.23      2.30      0.01         0.01
  WS02006239WS02006238        2.26      2.29      2.26      2.41         2.05
  WS02006240WS02006239        2.23      2.26      2.23      2.40         1.98
  WS02006242WS02006240        2.25      2.25      2.35      2.47         0.01
  WS02006243WS02006242        2.27      2.27      2.32      0.01         0.08
  WS02006245WS02006243        2.26      2.27      2.26      1.95         1.79
  WS02006247WS02006245        2.26      2.28      2.26      2.79         2.24
  WS02006248WS02006247        2.26      2.26      2.27      0.01         0.10
  WS02006249WS02006248        2.25      2.25      2.27      2.74         0.01
  WS02006251WS02006249        2.27      2.28      2.27      2.39         2.11
  WS02006252WS02006251        2.43      2.43      2.45      2.43         0.01
  WS02006256WS02006235        2.98      3.06      5.84      0.88         0.05
  YS02001580YS02001583        1.44      1.44      1.49      0.01         0.01
  YS02001583YS02001586        1.44      1.44      1.56      0.01         0.01
  YS02001586YS02001590        1.57      1.57      1.64      0.01         0.01
  YS02001590YS02001593        1.64      1.64      1.66      1.62         0.01
  YS02001593YS02001596        1.65      1.65      1.76      0.01         0.01
  YS02001596YS02001600        1.81      1.81      1.89      0.01         0.01
  YS02001600YS02001601        1.93      1.93      2.13      0.01         0.01
  YS02001601YS02001602        2.07      2.07      2.16      1.87         0.01
  YS02001602YS02001605        2.04      2.04      2.07      2.63         0.01
  YS02001605YS02001607        2.01      2.04      2.03      2.03         1.93
  YS02001607YS02001610        1.65      1.65      1.67      0.01         0.01
  YS02001610YS02001613        1.64      1.64      1.67      0.01         0.01
  YS02001613YS02001616        1.60      1.60      1.64      0.01         0.01
  YS02001616YS02001619        1.59      1.59      1.60      0.46         0.40
  YS02001619YS02001622        1.59      1.59      1.59      1.58         1.43
  YS02001622YS02001625        1.59      1.59      1.78      0.01         0.01
  YS02001625YS02001629        1.51      1.51      1.78      0.01         0.01
  YS02001629YS02163301        1.79      1.79      1.81      0.48         0.21
  YS02001633YS02163601        1.84      1.84      1.89      0.30         0.31
  YS02001641YS02001644        1.76      1.79      1.76      2.18         1.69
  YS02001644YS02001647        1.48      1.48      1.76      0.01         0.01
  YS02001647YS02001649        1.48      1.48      1.60      0.01         0.01
  YS02001649YS02001757        1.59      1.60      1.67      0.29         0.15
  YS02001652YS02001649        1.44      1.44      1.60      0.16         0.16
  YS02001655YS02001652        1.28      1.28      1.41      0.16         0.16
  YS02001658YS02001655        0.98      0.98      1.28      0.13         0.13
  YS02001661YS02001658        0.43      0.43      0.98      0.10         0.10
  YS02001664YS02001661        0.24      0.24      0.56      0.01         0.01
  YS02001745YS02001748        0.23      0.23      0.82      0.01         0.01
  YS02001748YS02001751        0.95      0.95      1.21      0.04         0.04
  YS02001751YS02001754        1.21      1.21      1.36      0.03         0.03
  YS02001754YS02001757        1.40      1.40      1.67      0.01         0.01
  YS02001757CaochengTiaoxuchi        1.64      1.67      2.17      0.82         0.69
  YS02001759YS02001757        1.59      1.59      1.67      0.12         0.11
  YS02001762YS02001759        1.56      1.56      1.59      0.01         0.01
  YS02001765YS02001762        1.52      1.52      1.56      0.01         0.01
  YS02001767YS02001765        1.49      1.49      1.52      0.01         0.02
  YS02001770YS02001767        1.48      1.49      1.49      1.23         0.83
  YS02001774YS02001770        1.47      1.47      1.54      0.01         0.01
  YS02001779YS02001774        1.34      1.34      1.54      0.01         0.01
  YS02001783YS02001784        0.32      0.34      0.32      0.45         0.32
  YS02001784YS02001785        0.24      0.32      0.24      0.63         0.24
  YS02001786YS02001788        0.01      0.24      0.01      0.53         0.01
  YS02001790YS02001791        0.01      0.01      0.01      0.31         0.01
  YS02001793JiankangQianchi        0.01      0.01      6.04      0.01         0.01
  YS02001882YS02001884        0.30      0.30      0.31      0.01         0.01
  YS02001884YS02001887        0.33      0.33      0.34      0.01         0.01
  YS02001887YS02001890        0.35      0.35      0.36      0.01         0.01
  YS02001890YS02001895        0.29      0.29      0.37      0.01         0.01
  YS02001895YS02001898        0.28      0.28      0.29      0.01         0.01
  YS02001898YS02001901        0.29      0.29      0.32      0.01         0.01
  YS02001901YS02001904        0.32      0.32      0.32      0.01         0.01
  YS02001904YS02001907        0.32      0.32      0.51      0.01         0.01
  YS02001907YS02006553        0.65      0.65      0.70      0.01         0.01
  YS02001910YS02001907        0.37      0.37      0.51      0.01         0.01
  YS02001915YS02001910        0.30      0.30      0.37      0.01         0.01
  YS02001918YS02001915        0.22      0.22      0.30      0.01         0.01
  YS02001920YS02001918        0.22      0.22      0.23      0.01         0.01
  YS02001923YS02001920        0.17      0.17      0.23      0.01         0.01
  YS02001926YS02001923        0.01      0.01      0.01      0.01         0.01
  YS02001929YS02001926        0.01      0.01      0.01      0.01         0.01
  YS02006553YS02006556        0.44      0.44      0.52      0.01         0.01
  YS02006556YS02006558        0.47      0.47      0.53      0.01         0.01
  YS02006558YS02006561        0.26      0.43      0.26      0.60         0.26
  YS02006561YS02001783        0.19      0.19      0.34      0.01         0.01
  YS02163301YS02001633        1.81      1.81      1.86      0.21         0.01
  YS02163601YS02164001        1.79      1.79      1.89      0.22         0.01
  YS02164001YS02001641        1.78      1.79      1.79      0.91         0.83
  
  
  ***************
  Pumping Summary
  ***************
  
  ---------------------------------------------------------------------------------------------------------
                                                  Min       Avg       Max     Total     Power    % Time Off
                        Percent   Number of      Flow      Flow      Flow    Volume     Usage    Pump Curve
  Pump                 Utilized   Start-Ups       LPS       LPS       LPS  10^6 ltr     Kw-hr    Low   High
  ---------------------------------------------------------------------------------------------------------
  CC-R1                   34.07          28      0.00    683.00    683.00     6.701    128.01    0.0   50.8
  CC-R2                   33.58          40      0.00    683.00    683.00     6.605    125.38    0.0   60.3
  CC-S1                   35.93          15      0.00    200.00    200.00     2.069     10.25    0.0   27.4
  CC-S2                   30.42          10      0.00    200.00    200.00     1.752      8.17    0.0   32.3
  JK-R1                    4.15          40      0.00   1000.00   1000.00     1.196     12.29    0.0    0.0
  JK-R2                    3.38          69      0.00   1000.00   1000.00     0.973      7.25    0.0    0.0
  JK-S                    10.91          87      0.00    300.00    300.00     0.942     17.28    0.0    0.0
  

  Analysis begun on:  Wed Aug  9 16:46:41 2023
  Analysis ended on:  Wed Aug  9 16:47:23 2023
  Total elapsed time: 00:00:42