
  OWA STORM WATER MANAGEMENT MODEL - VERSION v5.1.14 (OWA 2022-07-31)
  --------------------------------------------------------------

  WARNING 04: minimum elevation drop used for Conduit WS02004404WS02004405
  WARNING 03: negative offset ignored for Link YS02001904YS02001907
  
  *********************************************************
  NOTE: The summary statistics displayed in this report are
  based on results found at every computational time step,  
  not just on results from each reporting time step.
  *********************************************************
  
  ****************
  Analysis Options
  ****************
  Flow Units ............... LPS
  Process Models:
    Rainfall/Runoff ........ YES
    RDII ................... NO
    Snowmelt ............... NO
    Groundwater ............ NO
    Flow Routing ........... YES
    Ponding Allowed ........ NO
    Water Quality .......... NO
  Infiltration Method ...... HORTON
  Flow Routing Method ...... DYNWAVE
  Surcharge Method ......... EXTRAN
  Starting Date ............ 08/28/2015 08:00:00
  Ending Date .............. 08/28/2015 16:00:00
  Antecedent Dry Days ...... 8.0
  Report Time Step ......... 00:01:00
  Wet Time Step ............ 00:01:00
  Dry Time Step ............ 00:01:00
  Routing Time Step ........ 30.00 sec
  Variable Time Step ....... YES
  Maximum Trials ........... 8
  Number of Threads ........ 4
  Head Tolerance ........... 0.001500 m
  
  
  **************************        Volume         Depth
  Runoff Quantity Continuity     hectare-m            mm
  **************************     ---------       -------
  Initial LID Storage ......         0.049         1.488
  Total Precipitation ......         6.904       208.126
  Evaporation Loss .........         0.000         0.000
  Infiltration Loss ........         0.085         2.551
  Surface Runoff ...........         5.884       177.397
  Final Storage ............         0.985        29.706
  Continuity Error (%) .....        -0.019
  
  
  **************************        Volume        Volume
  Flow Routing Continuity        hectare-m      10^6 ltr
  **************************     ---------     ---------
  Dry Weather Inflow .......         0.000         0.000
  Wet Weather Inflow .......         5.885        58.846
  Groundwater Inflow .......         0.000         0.000
  RDII Inflow ..............         0.000         0.000
  External Inflow ..........         0.083         0.834
  External Outflow .........         2.266        22.659
  Flooding Loss ............         3.806        38.060
  Evaporation Loss .........         0.000         0.000
  Exfiltration Loss ........         0.000         0.000
  Initial Stored Volume ....         0.243         2.431
  Final Stored Volume ......         0.178         1.780
  Continuity Error (%) .....        -0.625
  
  
  *************************
  Highest Continuity Errors
  *************************
  Node YS02001884 (3.68%)
  Node YS02001583 (-3.14%)
  Node WS02006256 (-2.59%)
  Node WS02006110 (-1.12%)
  
  
  ***************************
  Time-Step Critical Elements
  ***************************
  Link WS02006252WS02006251 (29.22%)
  Link WS02004404WS02004405 (16.43%)
  Link WS02006238WS02006235 (15.55%)
  Link YS02001791YS02001793 (10.90%)
  Link WS02003066WSF200 (7.00%)
  
  
  ********************************
  Highest Flow Instability Indexes
  ********************************
  Link WS02006113WS02006111 (47)
  Link WS02006252WS02006251 (31)
  Link WS02006238WS02006235 (29)
  Link WS02006256WS02006235 (28)
  Link WS02006111WS02006112 (27)
  
  
  *************************
  Routing Time Step Summary
  *************************
  Minimum Time Step           :     0.00 sec
  Average Time Step           :     2.42 sec
  Maximum Time Step           :    30.00 sec
  Percent in Steady State     :    -0.00
  Average Iterations per Step :     4.15
  Percent Not Converging      :    24.04
  
  
  ***************************
  Subcatchment Runoff Summary
  ***************************
  
  ------------------------------------------------------------------------------------------------------------------------------
                            Total      Total      Total      Total     Imperv       Perv      Total       Total     Peak  Runoff
                           Precip      Runon       Evap      Infil     Runoff     Runoff     Runoff      Runoff   Runoff   Coeff
  Subcatchment                 mm         mm         mm         mm         mm         mm         mm    10^6 ltr      LPS
  ------------------------------------------------------------------------------------------------------------------------------
  sub60                    238.15       0.00       0.00       1.48     160.84      20.58     205.34        2.70  2062.90   0.862
  sub61                    238.15       0.00       0.00       2.28     160.69      30.82     210.64        3.87  2864.33   0.884
  sub62                    238.15       0.00       0.00       1.00     171.35      13.98     207.71        5.69  4197.74   0.872
  sub63                    238.15       0.00       0.00       4.23     137.64      52.31     208.97        4.74  3439.42   0.877
  sub64                    238.15       0.00       0.00       2.02     156.78      25.81     205.76        4.94  3606.88   0.864
  sub65                    238.15       0.00       0.00       1.86     169.25      23.59     211.53        5.82  4083.83   0.888
  sub66                    238.15       0.00       0.00       5.03     133.25      49.73     204.69        9.54  6323.56   0.859
  sub67                    122.37       0.00       0.00       0.97      89.75       6.92      96.68        1.80  1266.81   0.790
  sub68                    122.37       0.00       0.00       1.70      79.28      11.35      90.63        2.49  1642.22   0.741
  sub69                    238.15       0.00       0.00       1.66     160.34      26.65     208.75        7.73  5478.46   0.877
  sub70                    238.15       0.00       0.00       5.73     128.58      60.56     208.15        6.01  3686.17   0.874
  sub71                    122.37       0.00       0.00       0.90      79.56       6.10      85.65        2.24  1366.38   0.700
  sub72                    122.37       0.00       0.00       0.86      85.97       5.69      91.66        1.26   706.92   0.749
  

  ***********************
  LID Performance Summary
  ***********************

  --------------------------------------------------------------------------------------------------------------------
                                         Total      Evap     Infil   Surface    Drain    Initial     Final  Continuity
                                        Inflow      Loss      Loss   Outflow   Outflow   Storage   Storage       Error
  Subcatchment      LID Control             mm        mm        mm        mm        mm        mm        mm           %
  --------------------------------------------------------------------------------------------------------------------
  sub60             GreenRoof           238.15      0.00      0.00    104.78      0.00      7.05    140.42        0.00
  sub61             GreenRoof           238.15      0.00      0.00    104.78      0.00      7.05    140.42        0.00
  sub62             GreenRoof           238.15      0.00      0.00    104.78      0.00      7.05    140.42        0.00
  sub63             GreenRoof           238.15      0.00      0.00    104.78      0.00      7.05    140.42        0.00
  sub64             GreenRoof           238.15      0.00      0.00    104.78      0.00      7.05    140.42        0.00
  sub65             GreenRoof           238.15      0.00      0.00    104.78      0.00      7.05    140.42        0.00
  sub66             GreenRoof           238.15      0.00      0.00    104.78      0.00      7.05    140.42        0.00
  sub67             GreenRoof           122.37      0.00      0.00      0.00      0.00      7.05    129.42       -0.00
  sub68             GreenRoof           122.37      0.00      0.00      0.00      0.00      7.05    129.42       -0.00
  sub69             GreenRoof           238.15      0.00      0.00    104.78      0.00      7.05    140.42        0.00
  sub70             GreenRoof           238.15      0.00      0.00    104.78      0.00      7.05    140.42        0.00
  sub71             GreenRoof           122.37      0.00      0.00      0.00      0.00      7.05    129.42       -0.00
  sub72             GreenRoof           122.37      0.00      0.00      0.00      0.00      7.05    129.42       -0.00
  
  ******************
  Node Depth Summary
  ******************
  
  ---------------------------------------------------------------------------------
                                 Average  Maximum  Maximum  Time of Max    Reported
                                   Depth    Depth      HGL   Occurrence   Max Depth
  Node                 Type       Meters   Meters   Meters  days hr:min      Meters
  ---------------------------------------------------------------------------------
  WS02003060           JUNCTION     0.23     0.38     5.31     0  02:16        0.38
  WS02003066           JUNCTION     0.19     0.30     5.85     0  02:15        0.30
  WS02003067           JUNCTION     0.51     0.70     6.02     0  02:15        0.70
  WS02003069           JUNCTION     0.26     0.43     5.01     0  02:16        0.43
  WS02003072           JUNCTION     0.32     0.50     4.87     0  02:17        0.50
  WS02003073           JUNCTION     0.18     0.30     4.36     0  02:17        0.30
  WS02004401           JUNCTION     0.60     0.87     6.87     0  02:13        0.87
  WS02004402           JUNCTION     0.64     0.90     6.86     0  02:13        0.90
  WS02004403           JUNCTION     0.66     0.92     6.85     0  02:13        0.91
  WS02004404           JUNCTION     0.74     1.02     6.87     0  02:13        1.00
  WS02004405           JUNCTION     0.72     0.96     6.81     0  02:12        0.96
  WS02004406           JUNCTION     0.74     0.96     6.79     0  02:13        0.95
  WS02004407           JUNCTION     0.17     0.29     6.61     0  02:14        0.29
  WS02004409           JUNCTION     0.39     0.66     6.43     0  02:14        0.66
  WS02004410           JUNCTION     0.42     0.68     6.40     0  02:14        0.68
  WS02004411           JUNCTION     0.44     0.69     6.37     0  02:14        0.69
  WS02004412           JUNCTION     0.46     0.69     6.33     0  02:15        0.69
  WS02004413           JUNCTION     0.62     0.85     6.32     0  02:15        0.85
  WS02006109           JUNCTION     0.65     1.24     7.85     0  00:00        0.99
  WS02006110           JUNCTION     0.65     1.45     8.04     0  00:00        0.94
  WS02006111           JUNCTION     0.18     1.67     8.37     0  00:00        0.54
  WS02006112           JUNCTION     0.76     2.68     8.56     0  00:00        1.21
  WS02006113           JUNCTION     0.27     1.50     8.40     0  00:00        0.46
  WS02006115           JUNCTION     0.48     1.69     7.83     0  00:00        0.86
  WS02006116           JUNCTION     0.57     1.11     7.15     0  00:00        0.85
  WS02006228           JUNCTION     0.64     1.64     8.29     0  00:00        1.07
  WS02006229           JUNCTION     0.61     1.31     8.00     0  00:00        1.08
  WS02006230           JUNCTION     0.61     1.28     8.03     0  02:04        1.21
  WS02006231           JUNCTION     0.41     1.17     8.29     0  03:16        0.97
  WS02006232           JUNCTION     0.54     1.37     8.41     0  03:19        1.17
  WS02006234           JUNCTION     0.46     1.91     9.07     0  03:19        1.30
  WS02006235           JUNCTION     0.50     1.95     9.11     0  03:19        1.50
  WS02006238           JUNCTION     0.53     2.01     9.16     0  03:19        1.55
  WS02006239           JUNCTION     0.50     1.92     9.13     0  03:19        1.50
  WS02006240           JUNCTION     0.47     1.75     9.04     0  03:19        1.73
  WS02006242           JUNCTION     0.54     1.55     8.82     0  03:18        1.55
  WS02006243           JUNCTION     0.46     1.48     8.90     0  03:19        1.48
  WS02006245           JUNCTION     0.47     1.56     9.04     0  03:19        1.56
  WS02006247           JUNCTION     0.49     1.47     8.97     0  03:19        1.47
  WS02006248           JUNCTION     0.45     1.10     8.69     0  01:38        1.10
  WS02006249           JUNCTION     0.48     1.09     8.69     0  01:38        1.09
  WS02006251           JUNCTION     0.48     2.11     9.78     0  01:39        2.11
  WS02006252           JUNCTION     0.34     1.50     9.74     0  01:36        1.50
  WS02006256           JUNCTION     0.94     2.35     9.28     0  00:00        2.35
  WSF200               JUNCTION     0.17     0.29     5.52     0  02:15        0.29
  YS02001580           JUNCTION     0.19     1.05     9.59     0  01:34        0.82
  YS02001583           JUNCTION     0.23     1.13     9.63     0  01:34        0.83
  YS02001586           JUNCTION     0.35     1.13     9.30     0  01:34        1.13
  YS02001590           JUNCTION     0.47     1.39     9.25     0  02:18        1.39
  YS02001593           JUNCTION     0.41     1.31     9.17     0  01:34        1.30
  YS02001596           JUNCTION     0.55     1.68     9.10     0  02:18        1.68
  YS02001600           JUNCTION     0.64     1.87     9.00     0  01:34        1.87
  YS02001601           JUNCTION     0.83     2.06     8.90     0  01:33        2.06
  YS02001602           JUNCTION     0.72     1.87     8.77     0  01:43        1.87
  YS02001605           JUNCTION     0.67     1.78     8.68     0  02:18        1.78
  YS02001607           JUNCTION     0.63     1.66     8.51     0  01:56        1.66
  YS02001610           JUNCTION     0.67     1.68     8.48     0  01:44        1.68
  YS02001613           JUNCTION     0.63     1.68     8.52     0  01:56        1.68
  YS02001616           JUNCTION     0.57     1.61     8.52     0  02:05        1.61
  YS02001619           JUNCTION     0.55     1.61     8.54     0  01:56        1.61
  YS02001622           JUNCTION     0.54     1.59     8.50     0  02:18        1.59
  YS02001625           JUNCTION     0.78     1.78     8.38     0  01:45        1.78
  YS02001629           JUNCTION     0.69     1.85     8.40     0  01:52        1.85
  YS02001633           JUNCTION     0.77     2.08     8.53     0  01:56        2.08
  YS02001641           JUNCTION     0.74     2.10     8.54     0  01:56        2.10
  YS02001644           JUNCTION     0.73     1.92     8.35     0  01:52        1.92
  YS02001647           JUNCTION     0.53     1.82     8.43     0  02:18        1.82
  YS02001649           JUNCTION     0.60     2.05     8.44     0  02:15        2.05
  YS02001652           JUNCTION     0.49     2.15     8.75     0  02:27        2.15
  YS02001655           JUNCTION     0.40     2.20     9.05     0  02:20        2.20
  YS02001658           JUNCTION     0.33     2.30     9.44     0  02:21        2.30
  YS02001661           JUNCTION     0.32     2.44     9.85     0  02:22        2.43
  YS02001664           JUNCTION     0.18     2.31    10.23     0  02:21        2.31
  YS02001745           JUNCTION     0.19     1.93     9.45     0  02:24        1.93
  YS02001748           JUNCTION     0.30     2.13     9.20     0  02:24        2.13
  YS02001751           JUNCTION     0.35     2.09     8.97     0  02:24        2.09
  YS02001754           JUNCTION     0.45     2.12     8.73     0  02:24        2.12
  YS02001757           JUNCTION     0.63     2.21     8.47     0  02:22        2.21
  YS02001759           JUNCTION     0.57     2.21     8.57     0  02:17        2.21
  YS02001762           JUNCTION     0.56     2.15     8.55     0  02:18        2.15
  YS02001765           JUNCTION     0.53     2.09     8.54     0  02:23        2.08
  YS02001767           JUNCTION     0.52     2.02     8.51     0  02:39        2.01
  YS02001770           JUNCTION     0.53     1.95     8.44     0  02:10        1.95
  YS02001774           JUNCTION     0.59     2.01     8.43     0  02:39        2.01
  YS02001779           JUNCTION     0.42     1.68     8.37     0  01:59        1.68
  YS02001783           JUNCTION     0.30     1.65     7.80     0  01:33        1.24
  YS02001784           JUNCTION     0.30     1.35     7.42     0  01:33        1.13
  YS02001786           JUNCTION     0.25     1.07     7.10     0  01:33        0.88
  YS02001788           JUNCTION     0.18     0.63     6.60     0  01:37        0.62
  YS02001790           JUNCTION     0.21     0.73     6.38     0  01:38        0.73
  YS02001791           JUNCTION     0.13     0.44     5.91     0  01:39        0.44
  YS02001793           JUNCTION     0.07     0.30     5.14     0  01:35        0.29
  YS02001882           JUNCTION     0.39     1.83     8.55     0  01:32        1.72
  YS02001884           JUNCTION     0.48     1.93     8.55     0  01:32        1.82
  YS02001887           JUNCTION     0.55     1.95     8.49     0  01:32        1.91
  YS02001890           JUNCTION     0.57     1.81     8.32     0  01:32        1.81
  YS02001895           JUNCTION     0.35     1.75     8.50     0  01:32        1.57
  YS02001898           JUNCTION     0.36     1.77     8.51     0  01:32        1.56
  YS02001901           JUNCTION     0.47     1.84     8.45     0  01:32        1.68
  YS02001904           JUNCTION     0.45     1.85     8.48     0  01:32        1.69
  YS02001907           JUNCTION     0.75     1.96     8.25     0  01:32        1.96
  YS02001910           JUNCTION     0.57     2.04     8.54     0  01:32        2.01
  YS02001915           JUNCTION     0.40     2.00     8.72     0  01:32        2.00
  YS02001918           JUNCTION     0.24     1.81     8.88     0  01:33        1.81
  YS02001920           JUNCTION     0.30     2.14     9.15     0  01:33        2.05
  YS02001923           JUNCTION     0.20     2.03     9.29     0  01:33        2.03
  YS02001926           JUNCTION     0.22     1.90     9.35     0  01:33        1.90
  YS02001929           JUNCTION     0.14     1.78     9.47     0  01:33        1.78
  YS02006553           JUNCTION     0.75     2.09     8.37     0  01:33        2.01
  YS02006556           JUNCTION     0.73     2.20     8.51     0  01:33        2.02
  YS02006558           JUNCTION     0.76     2.28     8.55     0  01:33        2.10
  YS02006561           JUNCTION     0.19     1.51     8.17     0  01:33        0.92
  YS02163301           JUNCTION     0.72     2.03     8.55     0  01:56        2.03
  YS02163601           JUNCTION     0.80     2.08     8.48     0  01:56        2.08
  YS02164001           JUNCTION     0.73     2.10     8.56     0  01:56        2.10
  CC-1                 OUTFALL      0.00     0.00     0.00     0  00:00        0.00
  CC-2                 OUTFALL      0.00     0.00     0.00     0  00:00        0.00
  JK-1                 OUTFALL      0.00     0.00     0.00     0  00:00        0.00
  JK-2                 OUTFALL      0.00     0.00     0.00     0  00:00        0.00
  WSC                  OUTFALL      0.18     0.30     0.97     0  02:17        0.30
  CC-storage           STORAGE      0.98     2.22     7.72     0  02:51        2.22
  JK-storage           STORAGE      1.40     4.23     5.03     0  02:04        4.18
  
  
  *******************
  Node Inflow Summary
  *******************
  
  -------------------------------------------------------------------------------------------------
                                  Maximum  Maximum                  Lateral       Total        Flow
                                  Lateral    Total  Time of Max      Inflow      Inflow     Balance
                                   Inflow   Inflow   Occurrence      Volume      Volume       Error
  Node                 Type           LPS      LPS  days hr:min    10^6 ltr    10^6 ltr     Percent
  -------------------------------------------------------------------------------------------------
  WS02003060           JUNCTION     16.53   545.88     0  02:15       0.476        5.47       0.037
  WS02003066           JUNCTION      0.00   529.02     0  02:15           0        4.99       0.025
  WS02003067           JUNCTION      0.00   528.94     0  02:15           0           5       0.080
  WS02003069           JUNCTION      0.32   545.85     0  02:16     0.00922        5.47       0.063
  WS02003072           JUNCTION      0.00   545.21     0  02:16           0        5.47       0.117
  WS02003073           JUNCTION      1.82   546.55     0  02:17      0.0524        5.52       0.089
  WS02004401           JUNCTION      0.00  1791.60     0  00:00           0         5.1       0.205
  WS02004402           JUNCTION      0.00  1254.90     0  00:01           0        5.09       0.208
  WS02004403           JUNCTION      0.00   919.18     0  00:01           0        5.08       0.202
  WS02004404           JUNCTION      0.00   867.70     0  00:01           0        5.07       0.146
  WS02004405           JUNCTION      0.00   859.04     0  00:01           0        5.06       0.192
  WS02004406           JUNCTION      0.00   734.85     0  00:02           0        5.05       0.419
  WS02004407           JUNCTION      0.00   535.09     0  02:13           0        5.03       0.016
  WS02004409           JUNCTION      0.00   534.36     0  02:14           0        5.03       0.046
  WS02004410           JUNCTION      0.00   532.38     0  02:14           0        5.03       0.081
  WS02004411           JUNCTION      0.00   531.02     0  02:14           0        5.02       0.103
  WS02004412           JUNCTION      0.00   530.11     0  02:14           0        5.02       0.138
  WS02004413           JUNCTION      0.00   529.69     0  02:15           0        5.01       0.257
  WS02006109           JUNCTION      0.00  1446.81     0  00:00           0        4.99      -0.178
  WS02006110           JUNCTION      0.00   552.37     0  03:00           0        4.97      -1.103
  WS02006111           JUNCTION      0.00  1180.41     0  00:00           0        5.03      -0.833
  WS02006112           JUNCTION      0.00  2307.30     0  00:00           0        5.07      -0.011
  WS02006113           JUNCTION      0.00   565.13     0  02:18           0        4.99      -0.767
  WS02006115           JUNCTION      0.00   937.16     0  00:00           0        5.04      -0.708
  WS02006116           JUNCTION      0.00  1254.80     0  00:00           0        5.07      -0.470
  WS02006228           JUNCTION      0.00   869.18     0  00:00           0        4.98      -0.046
  WS02006229           JUNCTION      0.00   550.92     0  02:04           0        4.96      -0.058
  WS02006230           JUNCTION     10.28   687.18     0  00:00       0.296        4.95       0.033
  WS02006231           JUNCTION      0.00   601.48     0  03:46           0        4.63      -0.110
  WS02006232           JUNCTION      0.00   598.77     0  03:46           0        4.63       0.172
  WS02006234           JUNCTION      0.00   585.19     0  03:46           0        4.62      -0.210
  WS02006235           JUNCTION      0.00   566.60     0  03:46           0        4.67       0.104
  WS02006238           JUNCTION      0.00   441.88     0  03:19           0        4.03      -0.084
  WS02006239           JUNCTION      0.00   437.68     0  03:19           0        3.99      -0.115
  WS02006240           JUNCTION      0.00   424.38     0  03:19           0        3.98       0.009
  WS02006242           JUNCTION      0.00   424.39     0  03:18           0        3.97      -0.092
  WS02006243           JUNCTION      0.00   425.73     0  03:24           0        3.97       0.008
  WS02006245           JUNCTION      0.00   425.98     0  03:18           0        3.98       0.259
  WS02006247           JUNCTION      0.00   426.33     0  03:18           0        3.98      -0.016
  WS02006248           JUNCTION      0.00   426.85     0  03:18           0        3.98       0.029
  WS02006249           JUNCTION      0.00   843.88     0  00:00           0         4.1       0.238
  WS02006251           JUNCTION      0.00   478.35     0  00:00           0        4.09      -0.367
  WS02006252           JUNCTION      0.00   400.00     0  00:00           0        4.06      -0.595
  WS02006256           JUNCTION      0.00   300.00     0  00:00           0       0.929      -2.522
  WSF200               JUNCTION      0.00   529.12     0  02:15           0        4.99       0.007
  YS02001580           JUNCTION      0.00    49.91     0  01:34           0     0.00438       2.336
  YS02001583           JUNCTION      0.00    76.43     0  01:33           0      0.0163      -3.046
  YS02001586           JUNCTION   3686.17  3686.17     0  02:25        6.01        6.03       0.008
  YS02001590           JUNCTION      0.00   318.60     0  01:56           0        2.19      -0.029
  YS02001593           JUNCTION      0.00   318.32     0  01:56           0        2.19       0.004
  YS02001596           JUNCTION      0.00   318.19     0  02:46           0        2.19      -0.012
  YS02001600           JUNCTION      0.00   318.20     0  02:46           0        2.19       0.009
  YS02001601           JUNCTION   5478.46  5795.90     0  02:25        7.73        9.92       0.006
  YS02001602           JUNCTION      0.00   498.24     0  01:33           0        3.22       0.015
  YS02001605           JUNCTION      0.00   498.13     0  01:33           0        2.93       0.021
  YS02001607           JUNCTION      0.00   497.92     0  01:33           0        2.93       0.055
  YS02001610           JUNCTION      0.00   954.45     0  02:20           0        4.37       0.044
  YS02001613           JUNCTION      0.00   618.07     0  02:32           0        3.06       0.041
  YS02001616           JUNCTION      0.00   618.34     0  02:32           0        3.06       0.013
  YS02001619           JUNCTION   6323.56  6323.56     0  02:25        9.55        11.2      -0.002
  YS02001622           JUNCTION      0.00  1054.06     0  02:33           0        6.61      -0.004
  YS02001625           JUNCTION      0.00  1505.50     0  02:21           0        7.69       0.151
  YS02001629           JUNCTION      0.00  1139.08     0  02:24           0        4.84      -0.022
  YS02001633           JUNCTION   4083.83  4083.83     0  02:25        5.82        8.79       0.039
  YS02001641           JUNCTION      0.00  1265.53     0  01:42           0        6.13       0.050
  YS02001644           JUNCTION   3606.88  5358.04     0  02:25        4.94          12       0.019
  YS02001647           JUNCTION      0.00  1565.44     0  01:43           0        6.95       0.002
  YS02001649           JUNCTION      0.00  3222.72     0  02:25           0        10.7       0.006
  YS02001652           JUNCTION      0.00  2429.30     0  02:23           0        4.52      -0.027
  YS02001655           JUNCTION      0.00  2731.29     0  02:26           0        4.63       0.026
  YS02001658           JUNCTION      0.00  2783.78     0  02:23           0        4.64      -0.066
  YS02001661           JUNCTION      0.00  2783.80     0  02:23           0        4.64      -0.047
  YS02001664           JUNCTION   3439.42  3439.42     0  02:25        4.74        4.74       0.008
  YS02001745           JUNCTION   2062.90  2062.90     0  02:24         2.7         2.7       0.036
  YS02001748           JUNCTION      0.00  2065.05     0  02:24           0         2.7      -0.077
  YS02001751           JUNCTION      0.00  2068.14     0  02:24           0         2.7       0.026
  YS02001754           JUNCTION      0.00  2070.67     0  02:24           0         2.7      -0.061
  YS02001757           JUNCTION      0.00  3484.44     0  02:24           0        16.5       0.017
  YS02001759           JUNCTION   2864.33  2864.33     0  02:24        3.86        5.94      -0.002
  YS02001762           JUNCTION      0.00   721.70     0  02:26           0        2.56       0.007
  YS02001765           JUNCTION      0.00   721.68     0  02:26           0        2.56       0.010
  YS02001767           JUNCTION      0.00   721.68     0  02:26           0        2.56       0.007
  YS02001770           JUNCTION   4197.74  4918.77     0  02:25        5.69        6.22      -0.005
  YS02001774           JUNCTION      0.00   852.20     0  02:21           0        1.65       0.078
  YS02001779           JUNCTION      0.00   851.83     0  02:33           0        1.61      -0.025
  YS02001783           JUNCTION      0.00  1176.59     0  01:37           0        4.87      -0.003
  YS02001784           JUNCTION      0.00  1175.89     0  01:37           0        4.87      -0.000
  YS02001786           JUNCTION      0.00  1176.35     0  01:37           0        4.87       0.005
  YS02001788           JUNCTION      0.00  1178.14     0  01:37           0        4.87       0.000
  YS02001790           JUNCTION      0.00  1187.48     0  01:36           0        4.87       0.019
  YS02001791           JUNCTION      0.00  1302.77     0  01:38           0        4.87      -0.036
  YS02001793           JUNCTION      0.00  1246.96     0  01:38           0        4.87       0.003
  YS02001882           JUNCTION      0.00    84.77     0  01:32           0      0.0131       2.143
  YS02001884           JUNCTION      0.00   123.43     0  01:31           0      0.0496       3.826
  YS02001887           JUNCTION   1266.81  1266.81     0  01:38         1.8        1.83       0.205
  YS02001890           JUNCTION      0.00  1267.74     0  01:38           0        1.79       0.211
  YS02001895           JUNCTION      0.00   532.60     0  01:33           0        1.44       0.121
  YS02001898           JUNCTION      0.00   532.94     0  01:33           0        1.44      -0.070
  YS02001901           JUNCTION      0.00   533.63     0  01:33           0        1.44       0.178
  YS02001904           JUNCTION      0.00   534.03     0  01:33           0        1.45       0.143
  YS02001907           JUNCTION      0.00  2976.96     0  01:38           0        5.08       0.296
  YS02001910           JUNCTION      0.00  1993.11     0  01:40           0        3.49       0.173
  YS02001915           JUNCTION   1366.38  2073.26     0  01:39        2.24        3.54       0.016
  YS02001918           JUNCTION      0.00   708.01     0  01:39           0        1.34      -0.013
  YS02001920           JUNCTION      0.00   708.54     0  01:40           0        1.32       0.034
  YS02001923           JUNCTION      0.00   707.28     0  01:39           0         1.3      -0.079
  YS02001926           JUNCTION      0.00   959.40     0  01:33           0        1.28      -0.033
  YS02001929           JUNCTION    706.92   789.46     0  01:33        1.26        1.27      -0.052
  YS02006553           JUNCTION      0.00   785.60     0  02:05           0        2.71       0.409
  YS02006556           JUNCTION      0.00   785.44     0  02:05           0        2.73       0.259
  YS02006558           JUNCTION   1642.22  1642.22     0  01:38         2.5        5.05       0.063
  YS02006561           JUNCTION      0.00  1176.40     0  01:37           0        4.87      -0.003
  YS02163301           JUNCTION      0.00  1138.92     0  02:23           0        4.84       0.034
  YS02163601           JUNCTION      0.00  1268.18     0  01:42           0        6.12       0.084
  YS02164001           JUNCTION      0.00  1267.43     0  01:42           0        6.12       0.034
  CC-1                 OUTFALL       0.00   683.00     0  00:00           0        6.62       0.000
  CC-2                 OUTFALL       0.00   683.00     0  01:10           0        6.46       0.000
  JK-1                 OUTFALL       0.00  1000.00     0  00:00           0        2.18       0.000
  JK-2                 OUTFALL       0.00  1000.00     0  01:25           0        1.88       0.000
  WSC                  OUTFALL       0.00   545.76     0  02:17           0        5.51       0.000
  CC-storage           STORAGE       0.00  2890.90     0  02:01           0        18.5      -0.160
  JK-storage           STORAGE       0.00  1258.99     0  01:42           0        5.02      -0.346
  
  
  **********************
  Node Surcharge Summary
  **********************
  
  Surcharging occurs when water rises above the top of the highest conduit.
  ---------------------------------------------------------------------
                                               Max. Height   Min. Depth
                                   Hours       Above Crown    Below Rim
  Node                 Type      Surcharged         Meters       Meters
  ---------------------------------------------------------------------
  WS02004404           JUNCTION        0.01          0.018        2.762
  WS02006109           JUNCTION        2.29          0.416        1.404
  WS02006110           JUNCTION        0.38          0.544        1.306
  WS02006111           JUNCTION        0.01          0.856        1.014
  WS02006112           JUNCTION        0.44          1.680        0.000
  WS02006113           JUNCTION        0.01          0.705        1.225
  WS02006115           JUNCTION        0.01          0.682        1.568
  WS02006116           JUNCTION        0.01          0.053        2.237
  WS02006228           JUNCTION        2.26          0.810        1.390
  WS02006229           JUNCTION        2.30          0.510        1.940
  WS02006230           JUNCTION        0.38          0.204        1.366
  WS02006231           JUNCTION        0.46          0.456        1.074
  WS02006232           JUNCTION        2.40          0.671        0.809
  WS02006234           JUNCTION        0.84          1.190        0.050
  WS02006235           JUNCTION        2.25          1.239        0.051
  WS02006238           JUNCTION        2.32          1.291        0.139
  WS02006239           JUNCTION        2.26          1.180        0.110
  WS02006240           JUNCTION        2.28          1.038        0.352
  WS02006242           JUNCTION        2.38          0.820        0.000
  WS02006243           JUNCTION        2.30          0.770        0.000
  WS02006245           JUNCTION        2.30          0.850        0.000
  WS02006247           JUNCTION        2.31          0.760        0.000
  WS02006248           JUNCTION        2.28          0.380        0.000
  WS02006249           JUNCTION        2.30          0.390        0.000
  WS02006251           JUNCTION        0.52          1.078        0.102
  WS02006252           JUNCTION        2.56          1.100        0.000
  WS02006256           JUNCTION        5.83          2.050        0.000
  YS02001580           JUNCTION        1.46          0.450        0.000
  YS02001583           JUNCTION        1.47          0.493        0.007
  YS02001586           JUNCTION        1.59          0.510        0.000
  YS02001590           JUNCTION        1.68          0.741        0.009
  YS02001593           JUNCTION        1.68          0.689        0.151
  YS02001596           JUNCTION        1.80          0.949        0.121
  YS02001600           JUNCTION        1.94          1.190        0.000
  YS02001601           JUNCTION        2.19          1.440        0.000
  YS02001602           JUNCTION        2.13          1.270        0.000
  YS02001605           JUNCTION        2.10          1.180        0.000
  YS02001607           JUNCTION        1.69          0.664        0.016
  YS02001610           JUNCTION        1.72          0.680        0.000
  YS02001613           JUNCTION        1.69          0.681        0.019
  YS02001616           JUNCTION        1.64          0.610        0.000
  YS02001619           JUNCTION        1.63          0.610        0.000
  YS02001622           JUNCTION        1.63          0.593        0.027
  YS02001625           JUNCTION        1.83          0.780        0.000
  YS02001629           JUNCTION        1.53          0.470        0.000
  YS02001633           JUNCTION        1.89          1.060        0.000
  YS02001641           JUNCTION        1.84          1.100        0.000
  YS02001644           JUNCTION        1.81          0.920        0.000
  YS02001647           JUNCTION        1.52          0.820        0.080
  YS02001649           JUNCTION        1.66          1.050        0.000
  YS02001652           JUNCTION        1.47          1.122        0.008
  YS02001655           JUNCTION        1.28          1.200        0.000
  YS02001658           JUNCTION        1.03          1.300        0.000
  YS02001661           JUNCTION        0.47          1.374        0.016
  YS02001664           JUNCTION        0.26          1.310        0.000
  YS02001745           JUNCTION        0.26          0.932        0.418
  YS02001748           JUNCTION        0.86          1.046        0.144
  YS02001751           JUNCTION        1.19          1.092        0.108
  YS02001754           JUNCTION        1.40          1.075        0.075
  YS02001757           JUNCTION        1.73          1.210        0.000
  YS02001759           JUNCTION        1.65          1.210        0.000
  YS02001762           JUNCTION        1.62          1.150        0.000
  YS02001765           JUNCTION        1.58          1.087        0.013
  YS02001767           JUNCTION        1.55          1.019        0.011
  YS02001770           JUNCTION        1.52          0.920        0.000
  YS02001774           JUNCTION        1.60          1.010        0.040
  YS02001779           JUNCTION        1.38          0.680        0.000
  YS02001783           JUNCTION        0.74          0.855        0.745
  YS02001784           JUNCTION        0.72          0.550        0.940
  YS02001786           JUNCTION        0.60          0.275        1.155
  YS02001882           JUNCTION        0.68          0.830        0.000
  YS02001884           JUNCTION        0.69          0.870        0.000
  YS02001887           JUNCTION        0.73          0.898        0.052
  YS02001890           JUNCTION        0.75          0.760        0.000
  YS02001895           JUNCTION        0.67          0.750        0.000
  YS02001898           JUNCTION        0.66          0.740        0.000
  YS02001901           JUNCTION        0.71          0.840        0.030
  YS02001904           JUNCTION        0.70          0.850        0.000
  YS02001907           JUNCTION        0.97          0.950        0.000
  YS02001910           JUNCTION        0.78          1.038        0.062
  YS02001915           JUNCTION        0.67          1.000        0.000
  YS02001918           JUNCTION        0.58          0.810        0.000
  YS02001920           JUNCTION        0.59          1.140        0.000
  YS02001923           JUNCTION        0.23          0.820        0.000
  YS02001926           JUNCTION        0.25          0.900        0.000
  YS02001929           JUNCTION        0.13          0.780        0.000
  YS02006553           JUNCTION        1.00          1.089        0.101
  YS02006556           JUNCTION        0.87          1.161        0.189
  YS02006558           JUNCTION        0.86          1.178        0.222
  YS02006561           JUNCTION        0.54          0.713        0.437
  YS02163301           JUNCTION        1.86          1.030        0.000
  YS02163601           JUNCTION        1.95          1.080        0.000
  YS02164001           JUNCTION        1.84          1.100        0.000
  
  
  *********************
  Node Flooding Summary
  *********************
  
  Flooding refers to all water that overflows a node, whether it ponds or not.
  --------------------------------------------------------------------------
                                                             Total   Maximum
                                 Maximum   Time of Max       Flood    Ponded
                        Hours       Rate    Occurrence      Volume     Depth
  Node                 Flooded       LPS   days hr:min    10^6 ltr    Meters
  --------------------------------------------------------------------------
  WS02006112              0.01   1405.86      0  00:00       0.047     0.000
  WS02006242              0.01     14.88      0  03:19       0.000     0.000
  WS02006243              0.01      8.41      0  03:19       0.000     0.000
  WS02006245              0.01      2.44      0  03:19       0.000     0.000
  WS02006247              0.01      1.01      0  03:19       0.000     0.000
  WS02006248              0.01     20.83      0  03:20       0.000     0.000
  WS02006249              0.49    166.68      0  01:39       0.113     0.000
  WS02006252              0.01     18.47      0  01:39       0.000     0.000
  WS02006256              0.86    290.43      0  03:52       0.304     0.000
  YS02001580              0.01     26.73      0  01:34       0.000     0.000
  YS02001586              1.28   3367.41      0  02:25       3.820     0.000
  YS02001600              0.01      0.35      0  01:34       0.000     0.000
  YS02001601              1.53   5397.17      0  02:25       6.699     0.000
  YS02001602              1.37     62.03      0  02:05       0.295     0.000
  YS02001605              0.01      0.06      0  02:18       0.000     0.000
  YS02001610              1.30    953.93      0  02:21       2.758     0.000
  YS02001616              0.12      1.72      0  02:32       0.000     0.000
  YS02001619              0.48   4652.61      0  02:25       3.101     0.000
  YS02001625              1.30   1505.27      0  02:21       4.718     0.000
  YS02001629              0.54    686.88      0  02:24       0.784     0.000
  YS02001633              0.24   2039.51      0  02:25       0.790     0.000
  YS02001641              0.01      0.98      0  01:56       0.000     0.000
  YS02001644              0.85   5357.64      0  02:25       6.047     0.000
  YS02001649              0.25   2375.89      0  02:25       1.258     0.000
  YS02001655              0.12    303.05      0  02:23       0.104     0.000
  YS02001658              0.08     52.20      0  02:23       0.014     0.000
  YS02001664              0.08    656.14      0  02:25       0.106     0.000
  YS02001757              0.04     88.19      0  02:24       0.005     0.000
  YS02001759              0.09    733.29      0  02:24       0.131     0.000
  YS02001762              0.03      2.05      0  02:23       0.000     0.000
  YS02001770              0.39   4067.28      0  02:25       2.522     0.000
  YS02001779              0.74    851.51      0  02:33       1.587     0.000
  YS02001882              0.01     70.51      0  01:32       0.000     0.000
  YS02001884              0.01     47.98      0  01:32       0.000     0.000
  YS02001890              0.28    749.59      0  01:38       0.346     0.000
  YS02001895              0.01     81.63      0  01:32       0.000     0.000
  YS02001898              0.01    196.55      0  01:32       0.000     0.000
  YS02001904              0.01     62.41      0  01:32       0.000     0.000
  YS02001907              0.51   2976.21      0  01:38       2.503     0.000
  YS02001915              0.05    212.34      0  01:32       0.009     0.000
  YS02001918              0.01    148.04      0  01:34       0.002     0.000
  YS02001920              0.01      8.88      0  01:33       0.000     0.000
  YS02001923              0.01     60.06      0  01:33       0.000     0.000
  YS02001926              0.01    782.22      0  01:33       0.004     0.000
  YS02001929              0.01    606.95      0  01:33       0.003     0.000
  YS02163301              0.01      0.58      0  01:56       0.000     0.000
  YS02163601              0.01     38.25      0  02:39       0.000     0.000
  YS02164001              0.01      2.40      0  01:56       0.000     0.000
  
  
  **********************
  Storage Volume Summary
  **********************
  
  --------------------------------------------------------------------------------------------------
                         Average     Avg  Evap Exfil       Maximum     Max    Time of Max    Maximum
                          Volume    Pcnt  Pcnt  Pcnt        Volume    Pcnt     Occurrence    Outflow
  Storage Unit           1000 m3    Full  Loss  Loss       1000 m3    Full    days hr:min        LPS
  --------------------------------------------------------------------------------------------------
  CC-storage               2.743      43     0     0         6.187      97       0  02:51    1766.00
  JK-storage               0.070      24     0     0         0.212      73       0  02:04    2300.00
  
  
  ***********************
  Outfall Loading Summary
  ***********************
  
  -----------------------------------------------------------
                         Flow       Avg       Max       Total
                         Freq      Flow      Flow      Volume
  Outfall Node           Pcnt       LPS       LPS    10^6 ltr
  -----------------------------------------------------------
  CC-1                  49.39    683.00    683.00       6.621
  CC-2                  49.73    683.00    683.00       6.459
  JK-1                  10.78   1000.00   1000.00       2.182
  JK-2                   9.30   1000.00   1000.00       1.885
  WSC                   99.99    249.33    545.76       5.512
  -----------------------------------------------------------
  System                43.84   3615.33    545.76      22.659
  
  
  ********************
  Link Flow Summary
  ********************
  
  -----------------------------------------------------------------------------
                                 Maximum  Time of Max   Maximum    Max/    Max/
                                  |Flow|   Occurrence   |Veloc|    Full    Full
  Link                 Type          LPS  days hr:min     m/sec    Flow   Depth
  -----------------------------------------------------------------------------
  1                    CONDUIT    545.76     0  02:17      2.81    0.19    0.30
  WS02003060WS02003069 CONDUIT    545.53     0  02:16      1.64    0.21    0.34
  WS02003066WSF200     CONDUIT    529.12     0  02:15      2.84    0.09    0.22
  WS02003067WS02003066 CONDUIT    529.02     0  02:15      1.20    0.17    0.41
  WS02003069WS02003072 CONDUIT    545.21     0  02:16      1.36    0.26    0.38
  WS02003072WS02003073 CONDUIT    544.73     0  02:17      1.43    1.18    0.37
  WS02004401WS02004402 CONDUIT   1254.90     0  00:01      2.61    1.51    0.88
  WS02004402WS02004403 CONDUIT    919.18     0  00:01      2.26    1.32    0.90
  WS02004403WS02004404 CONDUIT    867.70     0  00:01      2.00    0.63    0.95
  WS02004404WS02004405 CONDUIT    859.04     0  00:01      2.43    8.42    0.97
  WS02004405WS02004406 CONDUIT    734.85     0  00:02      2.27    1.45    0.96
  WS02004406WS02004407 CONDUIT    535.09     0  02:13      1.04    0.24    0.62
  WS02004407WS02004409 CONDUIT    534.36     0  02:14      1.97    0.19    0.48
  WS02004409WS02004410 CONDUIT    532.38     0  02:14      1.35    0.69    0.67
  WS02004410WS02004411 CONDUIT    531.02     0  02:14      1.29    0.73    0.68
  WS02004411WS02004412 CONDUIT    530.11     0  02:14      1.26    0.75    0.69
  WS02004412WS02004413 CONDUIT    529.69     0  02:15      1.25    0.35    0.77
  WS02004413WS02003067 CONDUIT    528.94     0  02:15      1.10    0.23    0.59
  WS02006109WS02006110 CONDUIT   1446.81     0  00:00      2.88    2.78    1.00
  WS02006110WS02006113 CONDUIT    565.13     0  02:18      1.37    0.51    1.00
  WS02006111WS02006112 CONDUIT   2307.30     0  00:00      9.18    1.10    1.00
  WS02006112WS02006115 CONDUIT    937.16     0  00:00      1.22    0.55    1.00
  WS02006113WS02006111 CONDUIT   1180.41     0  00:00      2.47    1.41    1.00
  WS02006115WS02006116 CONDUIT   1254.80     0  00:00      1.72    1.61    1.00
  WS02006116WS02004401 CONDUIT   1791.60     0  00:00      2.97    2.47    0.86
  WS02006228WS02006109 CONDUIT    869.18     0  00:00      1.91    3.80    1.00
  WS02006229WS02006228 CONDUIT    550.11     0  02:04      1.09    1.82    1.00
  WS02006230WS02006229 CONDUIT    676.90     0  00:00      1.89   15.06    1.00
  WS02006231WS02006230 CONDUIT    593.06     0  03:46      2.02    9.00    1.00
  WS02006232WS02006231 CONDUIT    601.48     0  03:46      1.77    1.26    1.00
  WS02006234WS02006232 CONDUIT    598.77     0  03:46      1.56    1.21    1.00
  WS02006235WS02006234 CONDUIT    585.19     0  03:46      1.52    6.17    1.00
  WS02006238WS02006235 CONDUIT    450.64     0  03:18      1.48    1.01    1.00
  WS02006239WS02006238 CONDUIT    441.88     0  03:19      1.15    1.41    1.00
  WS02006240WS02006239 CONDUIT    437.68     0  03:19      1.28    1.38    1.00
  WS02006242WS02006240 CONDUIT    424.38     0  03:19      1.10    1.69    1.00
  WS02006243WS02006242 CONDUIT    424.39     0  03:18      1.35    0.91    1.00
  WS02006245WS02006243 CONDUIT    425.73     0  03:24      1.46    1.26    1.00
  WS02006247WS02006245 CONDUIT    425.98     0  03:18      1.44    3.38    1.00
  WS02006248WS02006247 CONDUIT    426.33     0  03:18      1.51    0.93    1.00
  WS02006249WS02006248 CONDUIT    426.85     0  03:18      1.48    2.34    1.00
  WS02006251WS02006249 CONDUIT    843.88     0  00:00      3.03    2.43    1.00
  WS02006252WS02006251 CONDUIT    478.35     0  00:00     24.44    1.76    1.00
  WS02006256WS02006235 CONDUIT    288.74     0  00:01      4.23    3.06    1.00
  WSF200WS02003060     CONDUIT    529.36     0  02:15      2.05    0.12    0.28
  YS02001580YS02001583 CONDUIT     49.91     0  01:34      0.43    0.19    1.00
  YS02001583YS02001586 CONDUIT     76.43     0  01:33      0.34    0.12    1.00
  YS02001586YS02001590 CONDUIT    318.60     0  01:56      1.24    0.56    1.00
  YS02001590YS02001593 CONDUIT    318.32     0  01:56      1.13    2.00    1.00
  YS02001593YS02001596 CONDUIT    318.19     0  02:46      1.70    0.50    1.00
  YS02001596YS02001600 CONDUIT    318.20     0  02:46      1.25    0.62    1.00
  YS02001600YS02001601 CONDUIT    318.11     0  02:59      1.13    0.55    1.00
  YS02001601YS02001602 CONDUIT    498.24     0  01:33      1.76    1.80    1.00
  YS02001602YS02001605 CONDUIT    498.13     0  01:33      1.76   10.54    1.00
  YS02001605YS02001607 CONDUIT    497.92     0  01:33      1.76    2.73    1.00
  YS02001607YS02001610 CONDUIT    498.20     0  01:33      0.63    0.47    1.00
  YS02001610YS02001613 CONDUIT    618.09     0  02:32      0.79    0.71    1.00
  YS02001613YS02001616 CONDUIT    618.07     0  02:32      0.79    0.53    1.00
  YS02001616YS02001619 CONDUIT    618.34     0  02:32      0.79    1.07    1.00
  YS02001619YS02001622 CONDUIT   1054.06     0  02:33      1.35    1.55    1.00
  YS02001622YS02001625 CONDUIT   1053.72     0  02:17      1.34    0.56    1.00
  YS02001625YS02001629 CONDUIT    914.44     0  01:42      1.16    0.43    1.00
  YS02001629YS02163301 CONDUIT   1139.08     0  02:24      1.45    1.40    1.00
  YS02001633YS02163601 CONDUIT   1268.18     0  01:42      1.61    1.33    1.00
  YS02001641YS02001644 CONDUIT   1264.47     0  01:42      1.61    4.09    1.00
  YS02001644YS02001647 CONDUIT   1565.44     0  01:43      2.06    0.92    1.00
  YS02001647YS02001649 CONDUIT   1569.10     0  01:43      2.24    0.83    1.00
  YS02001649YS02001757 CONDUIT   1792.46     0  01:45      2.41    1.09    1.00
  YS02001652YS02001649 CONDUIT   2429.23     0  02:23      3.09    1.20    1.00
  YS02001655YS02001652 CONDUIT   2429.30     0  02:23      3.09    1.18    1.00
  YS02001658YS02001655 CONDUIT   2731.29     0  02:26      3.48    1.16    1.00
  YS02001661YS02001658 CONDUIT   2783.78     0  02:23      3.54    1.09    1.00
  YS02001664YS02001661 CONDUIT   2783.80     0  02:23      3.54    0.87    1.00
  YS02001745YS02001748 CONDUIT   2065.05     0  02:24      2.63    0.79    1.00
  YS02001748YS02001751 CONDUIT   2068.14     0  02:24      2.63    1.04    1.00
  YS02001751YS02001754 CONDUIT   2070.67     0  02:24      2.64    1.00    1.00
  YS02001754YS02001757 CONDUIT   2072.68     0  02:24      2.64    0.83    1.00
  YS02001757CaochengTiaoxuchi CONDUIT   2890.90     0  02:01      3.68    1.25    1.00
  YS02001759YS02001757 CONDUIT   1538.42     0  02:26      1.96    1.09    1.00
  YS02001762YS02001759 CONDUIT    721.70     0  02:26      0.92    0.83    1.00
  YS02001765YS02001762 CONDUIT    721.68     0  02:26      0.92    0.68    1.00
  YS02001767YS02001765 CONDUIT    721.68     0  02:26      0.92    0.91    1.00
  YS02001770YS02001767 CONDUIT    721.69     0  02:26      0.92    2.86    1.00
  YS02001774YS02001770 CONDUIT    852.20     0  02:21      1.09    0.54    1.00
  YS02001779YS02001774 CONDUIT    851.83     0  02:33      1.08    0.43    1.00
  YS02001783YS02001784 CONDUIT   1175.89     0  01:37      2.34    1.62    1.00
  YS02001784YS02001785 CONDUIT   1176.35     0  01:37      2.34    2.74    1.00
  YS02001786YS02001788 CONDUIT   1178.14     0  01:37      2.50    2.27    0.89
  YS02001788YS02001790 CONDUIT   1187.48     0  01:36      2.73    0.88    0.85
  YS02001790YS02001791 CONDUIT   1302.77     0  01:38      3.44    1.42    0.71
  YS02001791YS02001793 CONDUIT   1246.96     0  01:38      6.76    0.54    0.45
  YS02001793JiankangQianchi CONDUIT   1258.99     0  01:42      2.51    0.10    0.65
  YS02001882YS02001884 CONDUIT     84.77     0  01:32      0.23    0.10    1.00
  YS02001884YS02001887 CONDUIT    123.43     0  01:31      0.18    0.16    1.00
  YS02001887YS02001890 CONDUIT   1267.74     0  01:38      1.61    2.17    1.00
  YS02001890YS02001895 CONDUIT    532.60     0  01:33      0.68    0.25    1.00
  YS02001895YS02001898 CONDUIT    532.94     0  01:33      0.68    0.92    1.00
  YS02001898YS02001901 CONDUIT    533.63     0  01:33      0.68    0.34    1.00
  YS02001901YS02001904 CONDUIT    534.03     0  01:33      0.68    0.83    1.00
  YS02001904YS02001907 CONDUIT    535.00     0  01:33      0.68    0.19    1.00
  YS02001907YS02006553 CONDUIT    785.60     0  02:05      0.87    0.92    1.00
  YS02001910YS02001907 CONDUIT   1992.99     0  01:40      2.54    1.12    1.00
  YS02001915YS02001910 CONDUIT   1993.11     0  01:40      2.54    0.99    1.00
  YS02001918YS02001915 CONDUIT    709.33     0  01:39      0.90    0.39    1.00
  YS02001920YS02001918 CONDUIT    708.01     0  01:39      0.90    0.68    1.00
  YS02001923YS02001920 CONDUIT    708.54     0  01:40      0.90    0.32    1.00
  YS02001926YS02001923 CONDUIT    718.13     0  01:33      1.14    1.03    1.00
  YS02001929YS02001926 CONDUIT    707.77     0  01:40      1.21    0.34    1.00
  YS02006553YS02006556 CONDUIT    785.44     0  02:05      1.00    0.67    1.00
  YS02006556YS02006558 CONDUIT    787.55     0  02:06      1.00    0.62    1.00
  YS02006558YS02006561 CONDUIT   1176.40     0  01:37      4.16    2.60    1.00
  YS02006561YS02001783 CONDUIT   1176.59     0  01:37      2.34    0.61    1.00
  YS02163301YS02001633 CONDUIT   1138.92     0  02:23      1.45    1.07    1.00
  YS02163601YS02164001 CONDUIT   1267.43     0  01:42      1.61    1.12    1.00
  YS02164001YS02001641 CONDUIT   1265.53     0  01:42      1.61    1.73    1.00
  CC-R1                PUMP       683.00     0  00:00              1.00
  CC-R2                PUMP       683.00     0  01:10              1.00
  CC-S1                PUMP       200.00     0  00:00              1.00
  CC-S2                PUMP       200.00     0  00:00              1.00
  JK-R1                PUMP      1000.00     0  00:00              1.00
  JK-R2                PUMP      1000.00     0  01:25              1.00
  JK-S                 PUMP       300.00     0  00:00              1.00
  
  
  ***************************
  Flow Classification Summary
  ***************************
  
  -------------------------------------------------------------------------------------
                      Adjusted    ---------- Fraction of Time in Flow Class ---------- 
                       /Actual         Up    Down  Sub   Sup   Up    Down  Norm  Inlet 
  Conduit               Length    Dry  Dry   Dry   Crit  Crit  Crit  Crit  Ltd   Ctrl  
  -------------------------------------------------------------------------------------
  1                       1.00   0.00  0.00  0.00  0.00  1.00  0.00  0.00  0.53  0.00
  WS02003060WS02003069    1.00   0.00  0.00  0.00  0.95  0.05  0.00  0.00  0.67  0.00
  WS02003066WSF200        1.00   0.03  0.00  0.00  0.00  0.97  0.00  0.00  0.90  0.00
  WS02003067WS02003066    1.00   0.02  0.01  0.00  0.98  0.00  0.00  0.00  0.00  0.00
  WS02003069WS02003072    1.00   0.00  0.00  0.00  1.00  0.00  0.00  0.00  0.67  0.00
  WS02003072WS02003073    1.00   0.00  0.00  0.00  0.00  0.00  0.00  1.00  0.00  0.00
  WS02004401WS02004402    1.00   0.00  0.00  0.00  1.00  0.00  0.00  0.00  0.00  0.00
  WS02004402WS02004403    1.00   0.00  0.00  0.00  1.00  0.00  0.00  0.00  0.00  0.00
  WS02004403WS02004404    1.00   0.00  0.00  0.00  1.00  0.00  0.00  0.00  0.00  0.00
  WS02004404WS02004405    1.00   0.00  0.00  0.00  1.00  0.00  0.00  0.00  0.01  0.00
  WS02004405WS02004406    1.00   0.00  0.00  0.00  1.00  0.00  0.00  0.00  0.00  0.00
  WS02004406WS02004407    1.00   0.00  0.00  0.00  1.00  0.00  0.00  0.00  0.00  0.00
  WS02004407WS02004409    1.00   0.00  0.00  0.00  0.98  0.01  0.00  0.00  0.99  0.00
  WS02004409WS02004410    1.00   0.00  0.00  0.00  1.00  0.00  0.00  0.00  0.00  0.00
  WS02004410WS02004411    1.00   0.00  0.00  0.00  0.99  0.00  0.00  0.00  0.00  0.00
  WS02004411WS02004412    1.00   0.00  0.00  0.00  0.99  0.00  0.00  0.00  0.00  0.00
  WS02004412WS02004413    1.00   0.01  0.00  0.00  0.99  0.00  0.00  0.00  0.00  0.00
  WS02004413WS02003067    1.00   0.01  0.01  0.00  0.00  0.00  0.98  0.00  0.00  0.00
  WS02006109WS02006110    1.00   0.00  0.00  0.00  1.00  0.00  0.00  0.00  0.00  0.00
  WS02006110WS02006113    1.00   0.00  0.00  0.00  1.00  0.00  0.00  0.00  0.00  0.00
  WS02006111WS02006112    1.00   0.00  0.00  0.00  1.00  0.00  0.00  0.00  1.00  0.00
  WS02006112WS02006115    1.00   0.00  0.00  0.00  1.00  0.00  0.00  0.00  0.00  0.00
  WS02006113WS02006111    1.00   0.00  0.00  0.00  0.00  1.00  0.00  0.00  0.14  0.00
  WS02006115WS02006116    1.00   0.00  0.00  0.00  1.00  0.00  0.00  0.00  0.00  0.00
  WS02006116WS02004401    1.00   0.00  0.00  0.00  1.00  0.00  0.00  0.00  0.00  0.00
  WS02006228WS02006109    1.00   0.00  0.00  0.00  1.00  0.00  0.00  0.00  0.00  0.00
  WS02006229WS02006228    1.00   0.00  0.00  0.00  1.00  0.00  0.00  0.00  0.00  0.00
  WS02006230WS02006229    1.00   0.00  0.00  0.00  1.00  0.00  0.00  0.00  0.02  0.00
  WS02006231WS02006230    1.00   0.00  0.00  0.00  0.43  0.00  0.57  0.00  0.00  0.00
  WS02006232WS02006231    1.00   0.00  0.00  0.00  0.99  0.00  0.00  0.00  0.00  0.00
  WS02006234WS02006232    1.00   0.00  0.00  0.00  1.00  0.00  0.00  0.00  0.10  0.00
  WS02006235WS02006234    1.00   0.00  0.00  0.00  0.85  0.00  0.15  0.00  0.00  0.00
  WS02006238WS02006235    1.00   0.00  0.00  0.00  1.00  0.00  0.00  0.00  0.00  0.00
  WS02006239WS02006238    1.00   0.00  0.00  0.00  1.00  0.00  0.00  0.00  0.26  0.00
  WS02006240WS02006239    1.00   0.00  0.00  0.00  0.78  0.00  0.00  0.22  0.02  0.00
  WS02006242WS02006240    1.00   0.00  0.00  0.00  0.98  0.00  0.02  0.00  0.00  0.00
  WS02006243WS02006242    1.00   0.00  0.00  0.00  0.98  0.00  0.00  0.02  0.57  0.00
  WS02006245WS02006243    1.00   0.00  0.00  0.00  0.85  0.00  0.00  0.15  0.00  0.00
  WS02006247WS02006245    1.00   0.00  0.00  0.00  0.98  0.00  0.00  0.02  0.00  0.00
  WS02006248WS02006247    1.00   0.00  0.00  0.00  0.97  0.00  0.00  0.03  0.41  0.00
  WS02006249WS02006248    1.00   0.00  0.00  0.00  0.69  0.00  0.31  0.00  0.00  0.00
  WS02006251WS02006249    1.00   0.00  0.00  0.00  0.99  0.01  0.00  0.00  0.53  0.00
  WS02006252WS02006251    1.00   0.00  0.26  0.00  0.08  0.00  0.65  0.00  0.14  0.00
  WS02006256WS02006235    1.00   0.00  0.00  0.00  0.99  0.01  0.00  0.00  0.00  0.00
  WSF200WS02003060        1.00   0.00  0.03  0.00  0.27  0.70  0.00  0.00  0.60  0.00
  YS02001580YS02001583    1.00   0.18  0.42  0.00  0.40  0.00  0.00  0.00  0.60  0.00
  YS02001583YS02001586    1.00   0.25  0.18  0.00  0.56  0.00  0.01  0.00  0.60  0.00
  YS02001586YS02001590    1.00   0.11  0.00  0.00  0.70  0.02  0.00  0.17  0.29  0.00
  YS02001590YS02001593    1.00   0.11  0.00  0.00  0.32  0.00  0.56  0.00  0.00  0.00
  YS02001593YS02001596    1.00   0.11  0.00  0.00  0.36  0.01  0.00  0.52  0.02  0.00
  YS02001596YS02001600    1.00   0.11  0.00  0.00  0.40  0.01  0.00  0.48  0.03  0.00
  YS02001600YS02001601    1.00   0.11  0.00  0.00  0.89  0.00  0.00  0.00  0.55  0.00
  YS02001601YS02001602    1.00   0.11  0.00  0.00  0.89  0.00  0.00  0.00  0.00  0.00
  YS02001602YS02001605    1.00   0.11  0.00  0.00  0.89  0.00  0.00  0.00  0.00  0.00
  YS02001605YS02001607    1.00   0.11  0.00  0.00  0.89  0.00  0.00  0.00  0.00  0.00
  YS02001607YS02001610    1.00   0.11  0.00  0.00  0.89  0.00  0.00  0.00  0.00  0.00
  YS02001610YS02001613    1.00   0.11  0.00  0.00  0.89  0.00  0.00  0.00  0.00  0.00
  YS02001613YS02001616    1.00   0.11  0.00  0.00  0.89  0.00  0.00  0.00  0.00  0.00
  YS02001616YS02001619    1.00   0.11  0.00  0.00  0.89  0.00  0.00  0.00  0.00  0.00
  YS02001619YS02001622    1.00   0.11  0.00  0.00  0.89  0.00  0.00  0.00  0.30  0.00
  YS02001622YS02001625    1.00   0.11  0.00  0.00  0.89  0.00  0.00  0.00  0.01  0.00
  YS02001625YS02001629    1.00   0.11  0.01  0.00  0.40  0.00  0.48  0.00  0.00  0.00
  YS02001629YS02163301    1.00   0.11  0.00  0.00  0.88  0.00  0.00  0.00  0.00  0.00
  YS02001633YS02163601    1.00   0.11  0.00  0.00  0.89  0.00  0.00  0.00  0.00  0.00
  YS02001641YS02001644    1.00   0.11  0.00  0.00  0.89  0.00  0.00  0.00  0.00  0.00
  YS02001644YS02001647    1.00   0.11  0.01  0.00  0.88  0.00  0.00  0.00  0.00  0.00
  YS02001647YS02001649    1.00   0.11  0.00  0.00  0.60  0.28  0.00  0.00  0.55  0.00
  YS02001649YS02001757    1.00   0.00  0.11  0.00  0.55  0.33  0.00  0.00  0.11  0.00
  YS02001652YS02001649    1.00   0.11  0.00  0.00  0.88  0.01  0.00  0.00  0.54  0.00
  YS02001655YS02001652    1.00   0.11  0.00  0.00  0.43  0.00  0.00  0.46  0.04  0.00
  YS02001658YS02001655    1.00   0.11  0.00  0.00  0.76  0.13  0.00  0.00  0.57  0.00
  YS02001661YS02001658    1.00   0.11  0.00  0.00  0.49  0.40  0.00  0.00  0.60  0.00
  YS02001664YS02001661    1.00   0.11  0.00  0.00  0.74  0.15  0.00  0.00  0.76  0.00
  YS02001745YS02001748    1.00   0.11  0.00  0.00  0.27  0.00  0.00  0.62  0.04  0.00
  YS02001748YS02001751    1.00   0.11  0.00  0.00  0.76  0.13  0.00  0.00  0.56  0.00
  YS02001751YS02001754    1.00   0.11  0.00  0.00  0.39  0.02  0.00  0.49  0.04  0.00
  YS02001754YS02001757    1.00   0.00  0.11  0.00  0.88  0.00  0.00  0.00  0.56  0.00
  YS02001757CaochengTiaoxuchi    1.00   0.00  0.00  0.00  0.94  0.06  0.00  0.00  0.67  0.00
  YS02001759YS02001757    1.00   0.00  0.11  0.00  0.88  0.01  0.00  0.00  0.51  0.00
  YS02001762YS02001759    1.00   0.11  0.00  0.00  0.89  0.00  0.00  0.00  0.00  0.00
  YS02001765YS02001762    1.00   0.11  0.00  0.00  0.89  0.00  0.00  0.00  0.53  0.00
  YS02001767YS02001765    1.00   0.11  0.00  0.00  0.89  0.00  0.00  0.00  0.00  0.00
  YS02001770YS02001767    1.00   0.11  0.00  0.00  0.89  0.00  0.00  0.00  0.00  0.00
  YS02001774YS02001770    1.00   0.11  0.00  0.00  0.75  0.00  0.14  0.00  0.01  0.00
  YS02001779YS02001774    1.00   0.11  0.25  0.00  0.64  0.00  0.00  0.00  0.53  0.00
  YS02001783YS02001784    1.00   0.13  0.00  0.00  0.87  0.00  0.00  0.00  0.56  0.00
  YS02001784YS02001785    1.00   0.13  0.00  0.00  0.87  0.00  0.00  0.00  0.42  0.00
  YS02001786YS02001788    1.00   0.13  0.00  0.00  0.62  0.25  0.00  0.00  0.00  0.00
  YS02001788YS02001790    1.00   0.13  0.00  0.00  0.20  0.67  0.00  0.00  0.61  0.00
  YS02001790YS02001791    1.00   0.13  0.00  0.00  0.01  0.86  0.00  0.00  0.16  0.00
  YS02001791YS02001793    1.00   0.13  0.00  0.00  0.00  0.87  0.00  0.00  0.01  0.00
  YS02001793JiankangQianchi    1.00   0.00  0.13  0.00  0.81  0.06  0.00  0.00  0.79  0.00
  YS02001882YS02001884    1.00   0.12  0.00  0.00  0.88  0.00  0.00  0.00  0.00  0.00
  YS02001884YS02001887    1.00   0.11  0.00  0.00  0.88  0.00  0.00  0.00  0.00  0.00
  YS02001887YS02001890    1.00   0.11  0.00  0.00  0.88  0.00  0.00  0.00  0.00  0.00
  YS02001890YS02001895    1.00   0.11  0.01  0.00  0.88  0.00  0.00  0.00  0.00  0.00
  YS02001895YS02001898    1.00   0.12  0.00  0.00  0.87  0.00  0.01  0.00  0.00  0.00
  YS02001898YS02001901    1.00   0.12  0.00  0.00  0.88  0.00  0.00  0.00  0.00  0.00
  YS02001901YS02001904    1.00   0.12  0.00  0.00  0.88  0.00  0.00  0.00  0.00  0.00
  YS02001904YS02001907    1.00   0.11  0.01  0.00  0.88  0.00  0.00  0.00  0.00  0.00
  YS02001907YS02006553    1.00   0.11  0.00  0.00  0.88  0.00  0.00  0.00  0.00  0.00
  YS02001910YS02001907    1.00   0.11  0.00  0.00  0.88  0.00  0.00  0.01  0.01  0.00
  YS02001915YS02001910    1.00   0.11  0.00  0.00  0.88  0.01  0.00  0.00  0.01  0.00
  YS02001918YS02001915    1.00   0.11  0.01  0.00  0.88  0.00  0.00  0.00  0.69  0.00
  YS02001920YS02001918    1.00   0.12  0.01  0.00  0.88  0.00  0.00  0.00  0.00  0.00
  YS02001923YS02001920    1.00   0.12  0.00  0.00  0.88  0.00  0.00  0.00  0.75  0.00
  YS02001926YS02001923    1.00   0.11  0.00  0.00  0.14  0.00  0.75  0.00  0.00  0.00
  YS02001929YS02001926    1.00   0.11  0.00  0.00  0.89  0.00  0.00  0.00  0.79  0.00
  YS02006553YS02006556    1.00   0.11  0.00  0.00  0.89  0.00  0.00  0.00  0.00  0.00
  YS02006556YS02006558    1.00   0.11  0.00  0.00  0.89  0.00  0.00  0.00  0.00  0.00
  YS02006558YS02006561    1.00   0.13  0.00  0.00  0.13  0.74  0.00  0.00  0.15  0.00
  YS02006561YS02001783    1.00   0.13  0.00  0.00  0.29  0.58  0.00  0.00  0.66  0.00
  YS02163301YS02001633    1.00   0.11  0.00  0.00  0.89  0.00  0.00  0.00  0.00  0.00
  YS02163601YS02164001    1.00   0.11  0.00  0.00  0.89  0.00  0.00  0.00  0.00  0.00
  YS02164001YS02001641    1.00   0.11  0.00  0.00  0.89  0.00  0.00  0.00  0.00  0.00
  
  
  *************************
  Conduit Surcharge Summary
  *************************
  
  ----------------------------------------------------------------------------
                                                           Hours        Hours 
                         --------- Hours Full --------   Above Full   Capacity
  Conduit                Both Ends  Upstream  Dnstream   Normal Flow   Limited
  ----------------------------------------------------------------------------
  WS02003072WS02003073        0.01      0.01      0.01      0.85         0.01
  WS02004401WS02004402        0.01      0.01      0.01      0.01         0.01
  WS02004402WS02004403        0.01      0.01      0.01      0.02         0.01
  WS02004403WS02004404        0.01      0.01      0.01      0.01         0.01
  WS02004404WS02004405        0.01      0.01      0.01      3.50         0.01
  WS02004405WS02004406        0.01      0.01      0.01      0.25         0.01
  WS02006109WS02006110        0.38      0.38      2.39      0.43         0.01
  WS02006110WS02006113        0.01      0.01      2.35      0.01         0.01
  WS02006111WS02006112        0.01      0.01      2.64      0.01         0.01
  WS02006112WS02006115        0.01      0.01      0.43      0.01         0.01
  WS02006113WS02006111        0.01      0.01      0.01      0.01         0.01
  WS02006115WS02006116        0.01      0.01      0.01      0.01         0.01
  WS02006116WS02004401        0.01      0.01      0.01      0.01         0.01
  WS02006228WS02006109        2.28      2.39      2.28      2.86         2.28
  WS02006229WS02006228        2.26      2.30      2.26      2.59         2.25
  WS02006230WS02006229        2.48      2.56      2.49      3.58         2.48
  WS02006231WS02006230        0.38      0.38      0.49      3.40         0.01
  WS02006232WS02006231        0.45      0.45      2.40      0.52         0.01
  WS02006234WS02006232        2.18      2.18      2.40      0.49         0.55
  WS02006235WS02006234        0.82      0.83      2.25      3.26         0.03
  WS02006238WS02006235        2.28      2.28      2.41      0.01         0.01
  WS02006239WS02006238        2.30      2.35      2.32      2.45         2.13
  WS02006240WS02006239        2.25      2.30      2.25      2.44         2.02
  WS02006242WS02006240        2.28      2.28      2.41      2.53         0.01
  WS02006243WS02006242        2.31      2.31      2.38      0.01         0.06
  WS02006245WS02006243        2.30      2.30      2.30      2.03         1.91
  WS02006247WS02006245        2.30      2.32      2.30      3.05         2.28
  WS02006248WS02006247        2.29      2.29      2.31      0.01         0.09
  WS02006249WS02006248        2.28      2.28      2.30      3.02         0.01
  WS02006251WS02006249        2.29      2.31      2.30      2.47         2.15
  WS02006252WS02006251        2.50      2.50      2.55      2.50         0.01
  WS02006256WS02006235        3.20      3.30      5.68      0.83         0.05
  YS02001580YS02001583        1.46      1.46      1.52      0.01         0.01
  YS02001583YS02001586        1.47      1.47      1.59      0.01         0.01
  YS02001586YS02001590        1.60      1.60      1.68      0.01         0.01
  YS02001590YS02001593        1.68      1.68      1.70      1.66         0.01
  YS02001593YS02001596        1.69      1.69      1.80      0.01         0.01
  YS02001596YS02001600        1.86      1.86      1.94      0.01         0.01
  YS02001600YS02001601        1.99      1.99      2.19      0.01         0.01
  YS02001601YS02001602        2.13      2.13      2.21      1.92         0.01
  YS02001602YS02001605        2.10      2.10      2.13      2.69         0.01
  YS02001605YS02001607        2.07      2.10      2.09      2.07         1.98
  YS02001607YS02001610        1.69      1.69      1.72      0.01         0.01
  YS02001610YS02001613        1.69      1.69      1.72      0.01         0.01
  YS02001613YS02001616        1.64      1.64      1.69      0.01         0.01
  YS02001616YS02001619        1.63      1.63      1.64      0.48         0.40
  YS02001619YS02001622        1.62      1.63      1.63      1.62         1.48
  YS02001622YS02001625        1.63      1.63      1.83      0.01         0.01
  YS02001625YS02001629        1.53      1.53      1.83      0.01         0.01
  YS02001629YS02163301        1.84      1.84      1.86      0.50         0.20
  YS02001633YS02163601        1.89      1.89      1.95      0.34         0.36
  YS02001641YS02001644        1.81      1.84      1.81      2.24         1.73
  YS02001644YS02001647        1.52      1.52      1.81      0.01         0.01
  YS02001647YS02001649        1.52      1.52      1.66      0.01         0.01
  YS02001649YS02001757        1.66      1.66      1.73      0.29         0.17
  YS02001652YS02001649        1.49      1.49      1.66      0.17         0.17
  YS02001655YS02001652        1.28      1.28      1.47      0.16         0.16
  YS02001658YS02001655        1.03      1.03      1.28      0.12         0.12
  YS02001661YS02001658        0.47      0.47      1.03      0.10         0.10
  YS02001664YS02001661        0.26      0.26      0.59      0.01         0.01
  YS02001745YS02001748        0.26      0.26      0.86      0.01         0.01
  YS02001748YS02001751        0.99      0.99      1.19      0.03         0.03
  YS02001751YS02001754        1.19      1.19      1.40      0.01         0.01
  YS02001754YS02001757        1.45      1.45      1.73      0.01         0.01
  YS02001757CaochengTiaoxuchi        1.73      1.73      2.22      0.79         0.79
  YS02001759YS02001757        1.65      1.65      1.73      0.11         0.07
  YS02001762YS02001759        1.62      1.62      1.65      0.01         0.01
  YS02001765YS02001762        1.58      1.58      1.62      0.01         0.01
  YS02001767YS02001765        1.55      1.55      1.58      0.01         0.01
  YS02001770YS02001767        1.54      1.54      1.55      1.26         0.82
  YS02001774YS02001770        1.52      1.52      1.60      0.01         0.01
  YS02001779YS02001774        1.38      1.38      1.60      0.01         0.01
  YS02001783YS02001784        0.72      0.74      0.72      0.90         0.72
  YS02001784YS02001785        0.60      0.72      0.60      1.21         0.60
  YS02001786YS02001788        0.01      0.60      0.01      1.03         0.01
  YS02001790YS02001791        0.01      0.01      0.01      0.70         0.01
  YS02001793JiankangQianchi        0.01      0.01      3.26      0.01         0.01
  YS02001882YS02001884        0.68      0.68      0.69      0.01         0.01
  YS02001884YS02001887        0.72      0.72      0.73      0.01         0.01
  YS02001887YS02001890        0.75      0.75      0.76      0.24         0.01
  YS02001890YS02001895        0.67      0.67      0.78      0.01         0.01
  YS02001895YS02001898        0.66      0.66      0.67      0.01         0.01
  YS02001898YS02001901        0.67      0.67      0.71      0.01         0.01
  YS02001901YS02001904        0.70      0.70      0.71      0.01         0.01
  YS02001904YS02001907        0.70      0.70      1.00      0.01         0.01
  YS02001907YS02006553        1.24      1.24      1.33      0.01         0.01
  YS02001910YS02001907        0.78      0.78      0.97      0.10         0.11
  YS02001915YS02001910        0.67      0.67      0.78      0.01         0.01
  YS02001918YS02001915        0.58      0.58      0.67      0.01         0.01
  YS02001920YS02001918        0.58      0.58      0.59      0.01         0.01
  YS02001923YS02001920        0.53      0.53      0.59      0.01         0.01
  YS02001926YS02001923        0.23      0.23      0.25      0.03         0.01
  YS02001929YS02001926        0.13      0.13      0.25      0.01         0.01
  YS02006553YS02006556        0.87      0.87      1.00      0.01         0.01
  YS02006556YS02006558        0.93      0.93      1.03      0.01         0.01
  YS02006558YS02006561        0.62      0.86      0.62      1.16         0.62
  YS02006561YS02001783        0.54      0.54      0.74      0.01         0.01
  YS02163301YS02001633        1.86      1.86      1.92      0.24         0.01
  YS02163601YS02164001        1.84      1.84      1.95      0.22         0.01
  YS02164001YS02001641        1.83      1.84      1.84      0.93         0.84
  
  
  ***************
  Pumping Summary
  ***************
  
  ---------------------------------------------------------------------------------------------------------
                                                  Min       Avg       Max     Total     Power    % Time Off
                        Percent   Number of      Flow      Flow      Flow    Volume     Usage    Pump Curve
  Pump                 Utilized   Start-Ups       LPS       LPS       LPS  10^6 ltr     Kw-hr    Low   High
  ---------------------------------------------------------------------------------------------------------
  CC-R1                   33.72          18      0.00    683.00    683.00     6.633    127.59    0.0   50.5
  CC-R2                   32.95          41      0.00    683.00    683.00     6.481    125.07    0.0   48.6
  CC-S1                   37.82          25      0.00    200.00    200.00     2.179     10.80    0.0   27.2
  CC-S2                   33.09          47      0.00    200.00    200.00     1.906      9.09    0.0   31.1
  JK-R1                    7.57          95      0.00   1000.00   1000.00     2.180     18.94    0.0    0.0
  JK-R2                    6.53          70      0.00   1000.00   1000.00     1.881     15.99    0.0    0.0
  JK-S                    10.69         103      0.00    300.00    300.00     0.924     15.41    0.0    0.0
  

  Analysis begun on:  Thu Sep  7 21:58:34 2023
  Analysis ended on:  Thu Sep  7 21:59:11 2023
  Total elapsed time: 00:00:37