
  OWA STORM WATER MANAGEMENT MODEL - VERSION v5.1.14 (OWA 2022-07-31)
  --------------------------------------------------------------

  WARNING 04: minimum elevation drop used for Conduit WS02004404WS02004405
  WARNING 03: negative offset ignored for Link YS02001904YS02001907
  
  *********************************************************
  NOTE: The summary statistics displayed in this report are
  based on results found at every computational time step,  
  not just on results from each reporting time step.
  *********************************************************
  
  ****************
  Analysis Options
  ****************
  Flow Units ............... LPS
  Process Models:
    Rainfall/Runoff ........ YES
    RDII ................... NO
    Snowmelt ............... NO
    Groundwater ............ NO
    Flow Routing ........... YES
    Ponding Allowed ........ NO
    Water Quality .......... NO
  Infiltration Method ...... HORTON
  Flow Routing Method ...... DYNWAVE
  Surcharge Method ......... EXTRAN
  Starting Date ............ 08/28/2015 08:00:00
  Ending Date .............. 08/28/2015 16:00:00
  Antecedent Dry Days ...... 8.0
  Report Time Step ......... 00:01:00
  Wet Time Step ............ 00:01:00
  Dry Time Step ............ 00:01:00
  Routing Time Step ........ 30.00 sec
  Variable Time Step ....... YES
  Maximum Trials ........... 8
  Number of Threads ........ 4
  Head Tolerance ........... 0.001500 m
  
  
  **************************        Volume         Depth
  Runoff Quantity Continuity     hectare-m            mm
  **************************     ---------       -------
  Initial LID Storage ......         0.049         1.488
  Total Precipitation ......         3.316        99.971
  Evaporation Loss .........         0.000         0.000
  Infiltration Loss ........         0.078         2.341
  Surface Runoff ...........         2.554        77.006
  Final Storage ............         0.734        22.143
  Continuity Error (%) .....        -0.032
  
  
  **************************        Volume        Volume
  Flow Routing Continuity        hectare-m      10^6 ltr
  **************************     ---------     ---------
  Dry Weather Inflow .......         0.000         0.000
  Wet Weather Inflow .......         2.553        25.529
  Groundwater Inflow .......         0.000         0.000
  RDII Inflow ..............         0.000         0.000
  External Inflow ..........         0.083         0.834
  External Outflow .........         1.797        17.965
  Flooding Loss ............         0.942         9.419
  Evaporation Loss .........         0.000         0.000
  Exfiltration Loss ........         0.000         0.000
  Initial Stored Volume ....         0.243         2.431
  Final Stored Volume ......         0.178         1.776
  Continuity Error (%) .....        -1.278
  
  
  *************************
  Highest Continuity Errors
  *************************
  Node YS02001583 (-15.85%)
  Node YS02001884 (3.96%)
  Node WS02006256 (-2.28%)
  Node WS02006110 (-1.40%)
  Node WS02006111 (-1.04%)
  
  
  ***************************
  Time-Step Critical Elements
  ***************************
  Link WS02006252WS02006251 (26.97%)
  Link WS02004404WS02004405 (18.80%)
  Link YS02001791YS02001793 (14.74%)
  Link WS02006238WS02006235 (14.50%)
  Link WS02003066WSF200 (5.99%)
  
  
  ********************************
  Highest Flow Instability Indexes
  ********************************
  Link WS02006113WS02006111 (32)
  Link WS02006238WS02006235 (25)
  Link WS02006252WS02006251 (22)
  Link WS02006111WS02006112 (19)
  Link WS02006256WS02006235 (18)
  
  
  *************************
  Routing Time Step Summary
  *************************
  Minimum Time Step           :     0.00 sec
  Average Time Step           :     2.68 sec
  Maximum Time Step           :    30.00 sec
  Percent in Steady State     :    -0.00
  Average Iterations per Step :     3.64
  Percent Not Converging      :    17.64
  
  
  ***************************
  Subcatchment Runoff Summary
  ***************************
  
  ------------------------------------------------------------------------------------------------------------------------------
                            Total      Total      Total      Total     Imperv       Perv      Total       Total     Peak  Runoff
                           Precip      Runon       Evap      Infil     Runoff     Runoff     Runoff      Runoff   Runoff   Coeff
  Subcatchment                 mm         mm         mm         mm         mm         mm         mm    10^6 ltr      LPS
  ------------------------------------------------------------------------------------------------------------------------------
  sub60                     81.29       0.00       0.00       1.41      54.30       6.13      60.42        0.79   516.82   0.743
  sub61                     81.29       0.00       0.00       2.16      54.25       9.15      63.40        1.16   744.90   0.780
  sub62                     81.29       0.00       0.00       0.96      57.84       4.16      62.00        1.70  1017.93   0.763
  sub63                     81.29       0.00       0.00       3.91      46.46      15.39      61.85        1.40   810.56   0.761
  sub64                     81.29       0.00       0.00       1.88      52.91       7.62      60.53        1.45   809.80   0.745
  sub65                     81.29       0.00       0.00       1.73      57.11       6.96      64.07        1.76   943.68   0.788
  sub66                     81.29       0.00       0.00       4.50      44.94      14.20      59.14        2.76  1183.33   0.728
  sub67                    153.32       0.00       0.00       0.98     112.71       8.91     127.17        2.37  1990.81   0.829
  sub68                    153.32       0.00       0.00       1.74      99.55      14.61     120.98        3.33  2820.48   0.789
  sub69                     81.29       0.00       0.00       1.50      54.69       8.16      62.85        2.33  1236.13   0.773
  sub70                     81.29       0.00       0.00       4.94      43.82      17.69      61.51        1.78   687.01   0.757
  sub71                    153.32       0.00       0.00       0.93      99.91       7.84     115.92        3.03  2583.91   0.756
  sub72                    153.32       0.00       0.00       0.89     107.97       7.32     122.03        1.68  1295.36   0.796
  

  ***********************
  LID Performance Summary
  ***********************

  --------------------------------------------------------------------------------------------------------------------
                                         Total      Evap     Infil   Surface    Drain    Initial     Final  Continuity
                                        Inflow      Loss      Loss   Outflow   Outflow   Storage   Storage       Error
  Subcatchment      LID Control             mm        mm        mm        mm        mm        mm        mm           %
  --------------------------------------------------------------------------------------------------------------------
  sub60             GreenRoof            81.29      0.00      0.00      0.00      0.00      7.05     88.38       -0.05
  sub61             GreenRoof            81.29      0.00      0.00      0.00      0.00      7.05     88.38       -0.05
  sub62             GreenRoof            81.29      0.00      0.00      0.00      0.00      7.05     88.38       -0.05
  sub63             GreenRoof            81.29      0.00      0.00      0.00      0.00      7.05     88.38       -0.05
  sub64             GreenRoof            81.29      0.00      0.00      0.00      0.00      7.05     88.38       -0.05
  sub65             GreenRoof            81.29      0.00      0.00      0.00      0.00      7.05     88.38       -0.05
  sub66             GreenRoof            81.29      0.00      0.00      0.00      0.00      7.05     88.38       -0.05
  sub67             GreenRoof           153.32      0.00      0.00     28.61      0.00      7.05    131.76        0.00
  sub68             GreenRoof           153.32      0.00      0.00     28.61      0.00      7.05    131.76        0.00
  sub69             GreenRoof            81.29      0.00      0.00      0.00      0.00      7.05     88.38       -0.05
  sub70             GreenRoof            81.29      0.00      0.00      0.00      0.00      7.05     88.38       -0.05
  sub71             GreenRoof           153.32      0.00      0.00     28.61      0.00      7.05    131.76        0.00
  sub72             GreenRoof           153.32      0.00      0.00     28.61      0.00      7.05    131.76        0.00
  
  ******************
  Node Depth Summary
  ******************
  
  ---------------------------------------------------------------------------------
                                 Average  Maximum  Maximum  Time of Max    Reported
                                   Depth    Depth      HGL   Occurrence   Max Depth
  Node                 Type       Meters   Meters   Meters  days hr:min      Meters
  ---------------------------------------------------------------------------------
  WS02003060           JUNCTION     0.22     0.38     5.31     0  02:10        0.38
  WS02003066           JUNCTION     0.18     0.30     5.85     0  02:09        0.30
  WS02003067           JUNCTION     0.47     0.70     6.02     0  02:09        0.70
  WS02003069           JUNCTION     0.24     0.43     5.01     0  02:10        0.43
  WS02003072           JUNCTION     0.30     0.50     4.87     0  02:11        0.50
  WS02003073           JUNCTION     0.17     0.30     4.36     0  02:12        0.30
  WS02004401           JUNCTION     0.58     0.85     6.85     0  02:07        0.85
  WS02004402           JUNCTION     0.61     0.88     6.84     0  02:07        0.87
  WS02004403           JUNCTION     0.63     0.89     6.82     0  02:07        0.89
  WS02004404           JUNCTION     0.71     0.96     6.81     0  02:07        0.96
  WS02004405           JUNCTION     0.70     0.95     6.80     0  02:07        0.95
  WS02004406           JUNCTION     0.72     0.96     6.79     0  02:08        0.96
  WS02004407           JUNCTION     0.16     0.30     6.61     0  02:08        0.30
  WS02004409           JUNCTION     0.37     0.67     6.44     0  02:08        0.67
  WS02004410           JUNCTION     0.39     0.68     6.40     0  02:08        0.68
  WS02004411           JUNCTION     0.41     0.69     6.37     0  02:08        0.69
  WS02004412           JUNCTION     0.43     0.70     6.34     0  02:08        0.70
  WS02004413           JUNCTION     0.59     0.86     6.33     0  02:09        0.86
  WS02006109           JUNCTION     0.62     1.86     8.48     0  00:00        1.00
  WS02006110           JUNCTION     0.62     1.45     8.04     0  00:00        0.93
  WS02006111           JUNCTION     0.16     1.67     8.38     0  00:00        0.53
  WS02006112           JUNCTION     0.73     2.68     8.56     0  00:00        1.17
  WS02006113           JUNCTION     0.25     1.50     8.40     0  00:00        0.45
  WS02006115           JUNCTION     0.46     1.69     7.83     0  00:00        0.83
  WS02006116           JUNCTION     0.55     1.11     7.15     0  00:00        0.89
  WS02006228           JUNCTION     0.61     2.68     9.33     0  00:00        1.14
  WS02006229           JUNCTION     0.58     1.61     8.30     0  00:00        1.17
  WS02006230           JUNCTION     0.58     1.58     8.33     0  01:48        1.22
  WS02006231           JUNCTION     0.39     1.27     8.40     0  02:33        1.03
  WS02006232           JUNCTION     0.52     1.45     8.49     0  02:39        1.45
  WS02006234           JUNCTION     0.44     1.60     8.76     0  02:30        1.55
  WS02006235           JUNCTION     0.48     1.67     8.84     0  01:47        1.41
  WS02006238           JUNCTION     0.51     1.73     8.88     0  01:47        1.39
  WS02006239           JUNCTION     0.47     1.69     8.90     0  01:47        1.27
  WS02006240           JUNCTION     0.45     1.63     8.92     0  01:47        1.21
  WS02006242           JUNCTION     0.51     1.55     8.82     0  01:47        1.28
  WS02006243           JUNCTION     0.43     1.44     8.86     0  01:47        1.17
  WS02006245           JUNCTION     0.44     1.35     8.84     0  01:47        1.15
  WS02006247           JUNCTION     0.46     1.29     8.79     0  01:47        1.17
  WS02006248           JUNCTION     0.43     1.10     8.69     0  01:47        1.10
  WS02006249           JUNCTION     0.46     1.09     8.69     0  01:36        1.09
  WS02006251           JUNCTION     0.46     1.40     9.07     0  02:22        1.17
  WS02006252           JUNCTION     0.32     1.50     9.74     0  01:32        0.73
  WS02006256           JUNCTION     1.05     2.35     9.28     0  00:05        2.35
  WSF200               JUNCTION     0.15     0.29     5.52     0  02:09        0.29
  YS02001580           JUNCTION     0.14     1.05     9.59     0  01:24        0.77
  YS02001583           JUNCTION     0.17     1.14     9.64     0  01:24        0.82
  YS02001586           JUNCTION     0.27     1.13     9.30     0  01:24        1.13
  YS02001590           JUNCTION     0.37     1.39     9.25     0  01:24        1.37
  YS02001593           JUNCTION     0.30     1.37     9.23     0  01:24        1.28
  YS02001596           JUNCTION     0.40     1.73     9.14     0  01:24        1.65
  YS02001600           JUNCTION     0.49     1.87     9.00     0  01:24        1.86
  YS02001601           JUNCTION     0.68     2.06     8.90     0  01:23        2.06
  YS02001602           JUNCTION     0.58     1.87     8.77     0  01:25        1.87
  YS02001605           JUNCTION     0.54     1.78     8.68     0  01:25        1.77
  YS02001607           JUNCTION     0.52     1.68     8.53     0  01:25        1.65
  YS02001610           JUNCTION     0.56     1.68     8.48     0  01:25        1.68
  YS02001613           JUNCTION     0.52     1.70     8.54     0  01:25        1.65
  YS02001616           JUNCTION     0.46     1.61     8.52     0  01:25        1.60
  YS02001619           JUNCTION     0.44     1.61     8.54     0  01:25        1.60
  YS02001622           JUNCTION     0.43     1.62     8.52     0  01:25        1.57
  YS02001625           JUNCTION     0.67     1.78     8.38     0  01:25        1.78
  YS02001629           JUNCTION     0.56     1.85     8.40     0  01:25        1.85
  YS02001633           JUNCTION     0.63     2.05     8.51     0  01:26        2.03
  YS02001641           JUNCTION     0.61     1.98     8.41     0  01:26        1.95
  YS02001644           JUNCTION     0.60     1.92     8.35     0  01:26        1.92
  YS02001647           JUNCTION     0.39     1.84     8.45     0  01:27        1.84
  YS02001649           JUNCTION     0.45     2.05     8.44     0  01:26        2.05
  YS02001652           JUNCTION     0.33     2.16     8.76     0  01:26        2.16
  YS02001655           JUNCTION     0.25     2.20     9.05     0  01:26        2.02
  YS02001658           JUNCTION     0.18     2.30     9.44     0  01:26        1.70
  YS02001661           JUNCTION     0.18     2.33     9.74     0  01:27        1.27
  YS02001664           JUNCTION     0.08     0.82     8.74     0  01:27        0.56
  YS02001745           JUNCTION     0.09     2.35     9.87     0  01:26        2.35
  YS02001748           JUNCTION     0.17     2.27     9.35     0  01:26        2.27
  YS02001751           JUNCTION     0.21     2.20     9.08     0  01:27        2.20
  YS02001754           JUNCTION     0.29     2.20     8.81     0  01:27        2.20
  YS02001757           JUNCTION     0.46     2.21     8.47     0  01:27        2.21
  YS02001759           JUNCTION     0.40     2.21     8.57     0  01:27        2.21
  YS02001762           JUNCTION     0.39     2.15     8.55     0  01:27        2.15
  YS02001765           JUNCTION     0.37     2.10     8.55     0  01:27        2.10
  YS02001767           JUNCTION     0.36     2.03     8.52     0  01:27        2.03
  YS02001770           JUNCTION     0.38     1.95     8.44     0  01:26        1.95
  YS02001774           JUNCTION     0.44     2.02     8.44     0  01:26        1.99
  YS02001779           JUNCTION     0.27     1.68     8.37     0  01:26        1.68
  YS02001783           JUNCTION     0.36     1.39     7.53     0  02:35        1.39
  YS02001784           JUNCTION     0.36     1.24     7.31     0  02:35        1.23
  YS02001786           JUNCTION     0.29     0.95     6.98     0  02:35        0.94
  YS02001788           JUNCTION     0.21     0.65     6.63     0  02:36        0.65
  YS02001790           JUNCTION     0.25     0.75     6.39     0  02:36        0.73
  YS02001791           JUNCTION     0.15     0.45     5.92     0  02:36        0.44
  YS02001793           JUNCTION     0.08     0.31     5.14     0  02:28        0.30
  YS02001882           JUNCTION     0.45     1.83     8.55     0  02:35        1.83
  YS02001884           JUNCTION     0.53     1.93     8.54     0  02:36        1.92
  YS02001887           JUNCTION     0.60     2.00     8.54     0  02:35        2.00
  YS02001890           JUNCTION     0.62     1.81     8.32     0  02:12        1.81
  YS02001895           JUNCTION     0.42     1.58     8.33     0  02:15        1.58
  YS02001898           JUNCTION     0.42     1.59     8.33     0  02:15        1.56
  YS02001901           JUNCTION     0.53     1.70     8.31     0  02:15        1.68
  YS02001904           JUNCTION     0.51     1.65     8.28     0  02:15        1.64
  YS02001907           JUNCTION     0.79     1.96     8.25     0  02:11        1.96
  YS02001910           JUNCTION     0.63     2.01     8.52     0  02:35        2.01
  YS02001915           JUNCTION     0.46     2.00     8.72     0  02:32        2.00
  YS02001918           JUNCTION     0.29     1.81     8.88     0  02:34        1.81
  YS02001920           JUNCTION     0.35     1.98     8.99     0  02:35        1.98
  YS02001923           JUNCTION     0.24     1.83     9.09     0  02:35        1.83
  YS02001926           JUNCTION     0.26     1.77     9.21     0  02:35        1.77
  YS02001929           JUNCTION     0.17     1.67     9.37     0  02:35        1.67
  YS02006553           JUNCTION     0.80     2.08     8.37     0  02:35        2.08
  YS02006556           JUNCTION     0.77     2.23     8.54     0  02:35        2.23
  YS02006558           JUNCTION     0.81     2.38     8.65     0  02:35        2.38
  YS02006561           JUNCTION     0.23     1.12     7.78     0  02:35        1.12
  YS02163301           JUNCTION     0.59     1.93     8.45     0  01:26        1.92
  YS02163601           JUNCTION     0.66     2.08     8.48     0  01:26        2.03
  YS02164001           JUNCTION     0.60     1.99     8.45     0  01:26        1.95
  CC-1                 OUTFALL      0.00     0.00     0.00     0  00:00        0.00
  CC-2                 OUTFALL      0.00     0.00     0.00     0  00:00        0.00
  JK-1                 OUTFALL      0.00     0.00     0.00     0  00:00        0.00
  JK-2                 OUTFALL      0.00     0.00     0.00     0  00:00        0.00
  WSC                  OUTFALL      0.17     0.30     0.97     0  02:12        0.30
  CC-storage           STORAGE      0.82     1.52     7.02     0  02:05        1.52
  JK-storage           STORAGE      1.62     4.24     5.04     0  02:16        4.22
  
  
  *******************
  Node Inflow Summary
  *******************
  
  -------------------------------------------------------------------------------------------------
                                  Maximum  Maximum                  Lateral       Total        Flow
                                  Lateral    Total  Time of Max      Inflow      Inflow     Balance
                                   Inflow   Inflow   Occurrence      Volume      Volume       Error
  Node                 Type           LPS      LPS  days hr:min    10^6 ltr    10^6 ltr     Percent
  -------------------------------------------------------------------------------------------------
  WS02003060           JUNCTION     16.53   551.78     0  02:09       0.476        4.44       0.045
  WS02003066           JUNCTION      0.00   535.13     0  02:09           0        3.96       0.032
  WS02003067           JUNCTION      0.00   535.11     0  02:09           0        3.97       0.100
  WS02003069           JUNCTION      0.32   552.00     0  02:10     0.00922        4.44       0.077
  WS02003072           JUNCTION      0.00   551.94     0  02:10           0        4.44       0.143
  WS02003073           JUNCTION      1.82   553.71     0  02:11      0.0524        4.49       0.108
  WS02004401           JUNCTION      0.00  1858.72     0  00:00           0        4.07       0.263
  WS02004402           JUNCTION      0.00  1129.97     0  00:01           0        4.06       0.249
  WS02004403           JUNCTION      0.00   958.17     0  00:01           0        4.05       0.246
  WS02004404           JUNCTION      0.00   901.19     0  00:01           0        4.04       0.215
  WS02004405           JUNCTION      0.00   956.81     0  00:01           0        4.03       0.283
  WS02004406           JUNCTION      0.00   909.66     0  00:02           0        4.02       0.520
  WS02004407           JUNCTION      0.00   535.44     0  02:08           0           4       0.018
  WS02004409           JUNCTION      0.00   535.35     0  02:08           0           4       0.052
  WS02004410           JUNCTION      0.00   535.24     0  02:08           0           4       0.099
  WS02004411           JUNCTION      0.00   535.27     0  02:08           0        3.99       0.128
  WS02004412           JUNCTION      0.00   535.14     0  02:08           0        3.99       0.173
  WS02004413           JUNCTION      0.00   535.21     0  02:08           0        3.98       0.322
  WS02006109           JUNCTION      0.00  1446.81     0  00:00           0        3.97      -0.172
  WS02006110           JUNCTION      0.00   563.08     0  01:48           0        3.94      -1.381
  WS02006111           JUNCTION      0.00  1180.41     0  00:00           0           4      -1.030
  WS02006112           JUNCTION      0.00  2307.30     0  00:00           0        4.04       0.027
  WS02006113           JUNCTION      0.00   573.52     0  01:48           0        3.96      -0.945
  WS02006115           JUNCTION      0.00   946.19     0  00:00           0        4.01      -0.854
  WS02006116           JUNCTION      0.00  1209.38     0  00:00           0        4.04      -0.659
  WS02006228           JUNCTION      0.00   869.18     0  00:00           0        3.95      -0.031
  WS02006229           JUNCTION      0.00   562.34     0  01:48           0        3.93      -0.073
  WS02006230           JUNCTION     10.28   625.32     0  00:00       0.296        3.92       0.010
  WS02006231           JUNCTION      0.00   570.76     0  02:10           0        3.61      -0.076
  WS02006232           JUNCTION      0.00   569.78     0  02:10           0        3.61       0.211
  WS02006234           JUNCTION      0.00   567.09     0  02:32           0         3.6      -0.237
  WS02006235           JUNCTION      0.00   566.90     0  02:23           0        3.67       0.168
  WS02006238           JUNCTION      0.00   429.11     0  02:21           0        2.71      -0.031
  WS02006239           JUNCTION      0.00   428.08     0  02:21           0        2.66      -0.138
  WS02006240           JUNCTION      0.00   424.56     0  02:21           0        2.64       0.001
  WS02006242           JUNCTION      0.00   424.16     0  02:21           0        2.63       0.069
  WS02006243           JUNCTION      0.00   424.24     0  02:21           0        2.63      -0.137
  WS02006245           JUNCTION      0.00   424.82     0  02:21           0        2.63       0.360
  WS02006247           JUNCTION      0.00   425.47     0  02:22           0        2.64       0.058
  WS02006248           JUNCTION      0.00   426.81     0  02:22           0        2.64      -0.040
  WS02006249           JUNCTION      0.00   426.29     0  02:22           0        2.88       0.321
  WS02006251           JUNCTION      0.00   406.81     0  03:47           0        2.88       0.064
  WS02006252           JUNCTION      0.00   400.00     0  01:32           0        2.86      -0.865
  WS02006256           JUNCTION      0.00   366.07     0  03:23           0        1.42      -2.229
  WSF200               JUNCTION      0.00   535.15     0  02:09           0        3.96       0.008
  YS02001580           JUNCTION      0.00   345.19     0  01:24           0     0.00589      -4.134
  YS02001583           JUNCTION      0.00   333.24     0  01:24           0      0.0157     -13.683
  YS02001586           JUNCTION    687.01   687.01     0  01:31        1.78        1.79       0.108
  YS02001590           JUNCTION      0.00   317.97     0  01:54           0        1.39      -0.026
  YS02001593           JUNCTION      0.00   317.99     0  01:54           0        1.39       0.034
  YS02001596           JUNCTION      0.00   318.07     0  01:53           0        1.39       0.017
  YS02001600           JUNCTION      0.00   318.07     0  01:53           0        1.39       0.008
  YS02001601           JUNCTION   1236.13  1553.61     0  01:29        2.32        3.72       0.044
  YS02001602           JUNCTION      0.00   600.54     0  01:24           0        2.33       0.029
  YS02001605           JUNCTION      0.00   600.26     0  01:24           0        2.21       0.026
  YS02001607           JUNCTION      0.00   600.31     0  01:24           0        2.21       0.048
  YS02001610           JUNCTION      0.00   632.89     0  01:31           0         2.4       0.094
  YS02001613           JUNCTION      0.00   530.59     0  01:24           0        1.91       0.068
  YS02001616           JUNCTION      0.00   522.18     0  01:25           0        1.91       0.002
  YS02001619           JUNCTION   1183.33  1183.33     0  01:31        2.76        4.46      -0.009
  YS02001622           JUNCTION      0.00   974.31     0  01:24           0        4.26      -0.020
  YS02001625           JUNCTION      0.00  1251.89     0  01:31           0        4.41       0.213
  YS02001629           JUNCTION      0.00   842.03     0  01:57           0        3.55       0.001
  YS02001633           JUNCTION    943.68  1284.93     0  01:25        1.76        5.12       0.060
  YS02001641           JUNCTION      0.00  1264.15     0  01:25           0        4.94       0.054
  YS02001644           JUNCTION    809.80  1919.85     0  01:25        1.45        6.39       0.043
  YS02001647           JUNCTION      0.00  1922.54     0  01:25           0        6.18       0.005
  YS02001649           JUNCTION      0.00  2174.80     0  01:26           0        7.59       0.010
  YS02001652           JUNCTION      0.00   988.98     0  01:28           0         1.4      -0.229
  YS02001655           JUNCTION      0.00   988.85     0  01:28           0         1.4      -0.008
  YS02001658           JUNCTION      0.00   988.61     0  01:28           0         1.4      -0.136
  YS02001661           JUNCTION      0.00   984.58     0  01:28           0         1.4       0.006
  YS02001664           JUNCTION    810.56   810.56     0  01:28         1.4         1.4      -0.007
  YS02001745           JUNCTION    516.82   654.79     0  01:26       0.793       0.794       0.246
  YS02001748           JUNCTION      0.00   773.22     0  01:26           0       0.795      -0.565
  YS02001751           JUNCTION      0.00   764.47     0  01:26           0       0.805       0.153
  YS02001754           JUNCTION      0.00   652.36     0  01:27           0       0.807      -0.513
  YS02001757           JUNCTION      0.00  3573.69     0  01:27           0        11.1       0.058
  YS02001759           JUNCTION    744.90  1453.51     0  01:26        1.16        2.76      -0.009
  YS02001762           JUNCTION      0.00   809.41     0  01:33           0         1.6       0.013
  YS02001765           JUNCTION      0.00   809.38     0  01:33           0         1.6      -0.043
  YS02001767           JUNCTION      0.00   808.79     0  01:33           0        1.59      -0.037
  YS02001770           JUNCTION   1017.93  1017.93     0  01:28         1.7        1.74       0.003
  YS02001774           JUNCTION      0.00   664.15     0  01:26           0       0.164       0.541
  YS02001779           JUNCTION      0.00   643.01     0  01:26           0       0.121      -1.765
  YS02001783           JUNCTION      0.00  1254.54     0  02:36           0        5.62       0.001
  YS02001784           JUNCTION      0.00  1254.80     0  02:36           0        5.62       0.002
  YS02001786           JUNCTION      0.00  1254.52     0  02:36           0        5.62       0.002
  YS02001788           JUNCTION      0.00  1254.53     0  02:36           0        5.62       0.001
  YS02001790           JUNCTION      0.00  1256.42     0  02:36           0        5.62       0.036
  YS02001791           JUNCTION      0.00  1354.26     0  02:36           0        5.62      -0.043
  YS02001793           JUNCTION      0.00  1323.71     0  02:36           0        5.62       0.000
  YS02001882           JUNCTION      0.00    13.84     0  02:06           0      0.0135       3.360
  YS02001884           JUNCTION      0.00    35.93     0  01:23           0      0.0508       4.119
  YS02001887           JUNCTION   1990.81  1990.84     0  02:36        2.37         2.4       0.171
  YS02001890           JUNCTION      0.00  1988.89     0  02:36           0        2.36       0.186
  YS02001895           JUNCTION      0.00   519.54     0  02:39           0        1.72       0.102
  YS02001898           JUNCTION      0.00   518.64     0  02:38           0        1.71      -0.038
  YS02001901           JUNCTION      0.00   518.69     0  02:39           0        1.72       0.156
  YS02001904           JUNCTION      0.00   519.30     0  02:39           0        1.72       0.144
  YS02001907           JUNCTION      0.00  4074.10     0  02:36           0        6.44       0.260
  YS02001910           JUNCTION      0.00  1993.18     0  02:39           0        4.24       0.145
  YS02001915           JUNCTION   2583.91  3791.99     0  02:36        3.03         4.7       0.013
  YS02001918           JUNCTION      0.00  1296.85     0  02:36           0        1.68      -0.016
  YS02001920           JUNCTION      0.00  1296.63     0  02:36           0        1.68       0.022
  YS02001923           JUNCTION      0.00  1296.18     0  02:36           0        1.68       0.007
  YS02001926           JUNCTION      0.00  1294.97     0  02:36           0        1.68       0.003
  YS02001929           JUNCTION   1295.36  1295.36     0  02:36        1.68        1.68      -0.004
  YS02006553           JUNCTION      0.00  1565.90     0  02:36           0        3.29       0.333
  YS02006556           JUNCTION      0.00  1564.23     0  02:36           0        3.31       0.223
  YS02006558           JUNCTION   2820.48  2820.48     0  02:36        3.33        6.13       0.050
  YS02006561           JUNCTION      0.00  1255.07     0  02:36           0        5.62      -0.006
  YS02163301           JUNCTION      0.00   844.50     0  01:57           0        3.55       0.051
  YS02163601           JUNCTION      0.00  1279.02     0  01:25           0        4.93       0.106
  YS02164001           JUNCTION      0.00  1273.95     0  01:25           0        4.93       0.049
  CC-1                 OUTFALL       0.00   683.00     0  00:00           0        4.56       0.000
  CC-2                 OUTFALL       0.00   683.00     0  00:05           0        4.59       0.000
  JK-1                 OUTFALL       0.00  1000.00     0  01:31           0        1.82       0.000
  JK-2                 OUTFALL       0.00  1000.00     0  00:00           0        2.51       0.000
  WSC                  OUTFALL       0.00   553.65     0  02:12           0        4.48       0.000
  CC-storage           STORAGE       0.00  3573.70     0  01:27           0        13.4      -0.240
  JK-storage           STORAGE       0.00  1288.37     0  02:39           0        5.77      -0.307
  
  
  **********************
  Node Surcharge Summary
  **********************
  
  Surcharging occurs when water rises above the top of the highest conduit.
  ---------------------------------------------------------------------
                                               Max. Height   Min. Depth
                                   Hours       Above Crown    Below Rim
  Node                 Type      Surcharged         Meters       Meters
  ---------------------------------------------------------------------
  WS02006109           JUNCTION        1.66          1.044        0.776
  WS02006110           JUNCTION        0.79          0.544        1.306
  WS02006111           JUNCTION        0.01          0.859        1.011
  WS02006112           JUNCTION        0.95          1.680        0.000
  WS02006113           JUNCTION        0.01          0.705        1.225
  WS02006115           JUNCTION        0.01          0.682        1.568
  WS02006116           JUNCTION        0.01          0.053        2.237
  WS02006228           JUNCTION        1.65          1.851        0.349
  WS02006229           JUNCTION        1.67          0.810        1.640
  WS02006230           JUNCTION        0.80          0.503        1.067
  WS02006231           JUNCTION        0.95          0.563        0.967
  WS02006232           JUNCTION        1.68          0.748        0.732
  WS02006234           JUNCTION        1.16          0.884        0.356
  WS02006235           JUNCTION        1.59          0.962        0.328
  WS02006238           JUNCTION        1.64          1.011        0.419
  WS02006239           JUNCTION        1.62          0.951        0.339
  WS02006240           JUNCTION        1.65          0.919        0.471
  WS02006242           JUNCTION        1.66          0.820        0.000
  WS02006243           JUNCTION        1.64          0.726        0.044
  WS02006245           JUNCTION        1.64          0.642        0.208
  WS02006247           JUNCTION        1.64          0.577        0.183
  WS02006248           JUNCTION        1.63          0.380        0.000
  WS02006249           JUNCTION        1.63          0.390        0.000
  WS02006251           JUNCTION        1.06          0.372        0.808
  WS02006252           JUNCTION        1.76          1.100        0.000
  WS02006256           JUNCTION        5.11          2.050        0.000
  YS02001580           JUNCTION        0.67          0.450        0.000
  YS02001583           JUNCTION        0.68          0.500        0.000
  YS02001586           JUNCTION        0.81          0.510        0.000
  YS02001590           JUNCTION        0.88          0.742        0.008
  YS02001593           JUNCTION        0.88          0.749        0.091
  YS02001596           JUNCTION        0.98          0.996        0.074
  YS02001600           JUNCTION        1.13          1.190        0.000
  YS02001601           JUNCTION        1.61          1.440        0.000
  YS02001602           JUNCTION        1.43          1.270        0.000
  YS02001605           JUNCTION        1.36          1.180        0.000
  YS02001607           JUNCTION        0.84          0.680        0.000
  YS02001610           JUNCTION        0.87          0.680        0.000
  YS02001613           JUNCTION        0.83          0.700        0.000
  YS02001616           JUNCTION        0.79          0.610        0.000
  YS02001619           JUNCTION        0.78          0.610        0.000
  YS02001622           JUNCTION        0.78          0.620        0.000
  YS02001625           JUNCTION        0.96          0.780        0.000
  YS02001629           JUNCTION        0.72          0.470        0.000
  YS02001633           JUNCTION        0.97          1.033        0.027
  YS02001641           JUNCTION        0.91          0.976        0.124
  YS02001644           JUNCTION        0.89          0.920        0.000
  YS02001647           JUNCTION        0.68          0.837        0.063
  YS02001649           JUNCTION        0.82          1.050        0.000
  YS02001652           JUNCTION        0.58          1.130        0.000
  YS02001655           JUNCTION        0.37          1.200        0.000
  YS02001658           JUNCTION        0.17          1.300        0.000
  YS02001661           JUNCTION        0.02          1.261        0.129
  YS02001745           JUNCTION        0.01          1.350        0.000
  YS02001748           JUNCTION        0.04          1.190        0.000
  YS02001751           JUNCTION        0.23          1.200        0.000
  YS02001754           JUNCTION        0.43          1.150        0.000
  YS02001757           JUNCTION        0.88          1.210        0.000
  YS02001759           JUNCTION        0.77          1.210        0.000
  YS02001762           JUNCTION        0.74          1.150        0.000
  YS02001765           JUNCTION        0.68          1.100        0.000
  YS02001767           JUNCTION        0.63          1.030        0.000
  YS02001770           JUNCTION        0.60          0.920        0.000
  YS02001774           JUNCTION        0.71          1.021        0.029
  YS02001779           JUNCTION        0.42          0.680        0.000
  YS02001783           JUNCTION        0.89          0.594        1.006
  YS02001784           JUNCTION        0.85          0.443        1.047
  YS02001786           JUNCTION        0.71          0.146        1.284
  YS02001882           JUNCTION        0.81          0.830        0.000
  YS02001884           JUNCTION        0.83          0.867        0.003
  YS02001887           JUNCTION        0.87          0.950        0.000
  YS02001890           JUNCTION        0.89          0.760        0.000
  YS02001895           JUNCTION        0.79          0.578        0.172
  YS02001898           JUNCTION        0.78          0.562        0.178
  YS02001901           JUNCTION        0.86          0.698        0.172
  YS02001904           JUNCTION        0.84          0.651        0.199
  YS02001907           JUNCTION        1.30          0.950        0.000
  YS02001910           JUNCTION        0.93          1.014        0.086
  YS02001915           JUNCTION        0.81          1.000        0.000
  YS02001918           JUNCTION        0.69          0.810        0.000
  YS02001920           JUNCTION        0.71          0.984        0.156
  YS02001923           JUNCTION        0.28          0.622        0.198
  YS02001926           JUNCTION        0.32          0.766        0.134
  YS02001929           JUNCTION        0.18          0.673        0.107
  YS02006553           JUNCTION        1.33          1.081        0.109
  YS02006556           JUNCTION        1.07          1.186        0.164
  YS02006558           JUNCTION        1.05          1.284        0.116
  YS02006561           JUNCTION        0.65          0.319        0.831
  YS02163301           JUNCTION        0.95          0.934        0.096
  YS02163601           JUNCTION        1.00          1.080        0.000
  YS02164001           JUNCTION        0.92          0.995        0.105
  
  
  *********************
  Node Flooding Summary
  *********************
  
  Flooding refers to all water that overflows a node, whether it ponds or not.
  --------------------------------------------------------------------------
                                                             Total   Maximum
                                 Maximum   Time of Max       Flood    Ponded
                        Hours       Rate    Occurrence      Volume     Depth
  Node                 Flooded       LPS   days hr:min    10^6 ltr    Meters
  --------------------------------------------------------------------------
  WS02006112              0.01   1405.86      0  00:00       0.047     0.000
  WS02006242              0.01      8.21      0  01:47       0.000     0.000
  WS02006248              0.05     23.43      0  02:36       0.002     0.000
  WS02006249              1.01     91.49      0  01:36       0.233     0.000
  WS02006252              0.01    312.35      0  03:47       0.000     0.000
  WS02006256              1.31    359.82      0  03:23       0.471     0.000
  YS02001580              0.01    307.61      0  01:24       0.002     0.000
  YS02001583              0.01    173.03      0  01:24       0.001     0.000
  YS02001586              0.53    369.50      0  01:31       0.384     0.000
  YS02001600              0.01     19.24      0  01:24       0.000     0.000
  YS02001601              0.72   1155.76      0  01:29       1.385     0.000
  YS02001602              0.58     62.10      0  01:55       0.119     0.000
  YS02001605              0.01      7.82      0  01:25       0.000     0.000
  YS02001607              0.01    409.93      0  01:25       0.004     0.000
  YS02001610              0.51    632.88      0  01:31       0.691     0.000
  YS02001613              0.01    280.02      0  01:25       0.001     0.000
  YS02001616              0.01    159.44      0  01:25       0.003     0.000
  YS02001619              0.01     40.95      0  01:25       0.000     0.000
  YS02001622              0.01    283.40      0  01:25       0.001     0.000
  YS02001625              0.47   1251.86      0  01:31       1.027     0.000
  YS02001629              0.09    263.64      0  01:27       0.049     0.000
  YS02001644              0.14    795.77      0  01:27       0.194     0.000
  YS02001649              0.01    153.47      0  01:27       0.001     0.000
  YS02001652              0.01     20.48      0  01:27       0.000     0.000
  YS02001655              0.01     89.93      0  01:26       0.000     0.000
  YS02001658              0.01    336.03      0  01:26       0.000     0.000
  YS02001745              0.01    220.15      0  01:26       0.000     0.000
  YS02001748              0.01    345.85      0  01:26       0.001     0.000
  YS02001751              0.01     46.69      0  01:27       0.000     0.000
  YS02001754              0.01     51.08      0  01:27       0.000     0.000
  YS02001757              0.01     12.41      0  01:27       0.000     0.000
  YS02001759              0.01      3.19      0  01:27       0.000     0.000
  YS02001762              0.01      9.52      0  01:27       0.000     0.000
  YS02001765              0.01      5.79      0  01:27       0.000     0.000
  YS02001767              0.01      1.96      0  01:27       0.000     0.000
  YS02001770              0.01    101.08      0  01:26       0.001     0.000
  YS02001779              0.11    594.00      0  01:26       0.104     0.000
  YS02001882              0.01      0.76      0  02:35       0.000     0.000
  YS02001887              0.01      4.10      0  02:35       0.000     0.000
  YS02001890              0.39   1473.16      0  02:36       0.638     0.000
  YS02001907              0.64   4073.46      0  02:36       3.617     0.000
  YS02001915              0.14   1797.73      0  02:36       0.456     0.000
  YS02001918              0.05     88.01      0  02:36       0.007     0.000
  
  
  **********************
  Storage Volume Summary
  **********************
  
  --------------------------------------------------------------------------------------------------
                         Average     Avg  Evap Exfil       Maximum     Max    Time of Max    Maximum
                          Volume    Pcnt  Pcnt  Pcnt        Volume    Pcnt     Occurrence    Outflow
  Storage Unit           1000 m3    Full  Loss  Loss       1000 m3    Full    days hr:min        LPS
  --------------------------------------------------------------------------------------------------
  CC-storage               2.273      35     0     0         4.245      66       0  02:05    1766.00
  JK-storage               0.081      28     0     0         0.213      73       0  02:16    2300.00
  
  
  ***********************
  Outfall Loading Summary
  ***********************
  
  -----------------------------------------------------------
                         Flow       Avg       Max       Total
                         Freq      Flow      Flow      Volume
  Outfall Node           Pcnt       LPS       LPS    10^6 ltr
  -----------------------------------------------------------
  CC-1                  47.27    683.00    683.00       4.555
  CC-2                  46.53    683.00    683.00       4.591
  JK-1                  11.20   1000.00   1000.00       1.824
  JK-2                  14.69   1000.00   1000.00       2.513
  WSC                   99.99    233.75    553.65       4.482
  -----------------------------------------------------------
  System                43.94   3599.75    553.65      17.965
  
  
  ********************
  Link Flow Summary
  ********************
  
  -----------------------------------------------------------------------------
                                 Maximum  Time of Max   Maximum    Max/    Max/
                                  |Flow|   Occurrence   |Veloc|    Full    Full
  Link                 Type          LPS  days hr:min     m/sec    Flow   Depth
  -----------------------------------------------------------------------------
  1                    CONDUIT    553.65     0  02:12      2.82    0.19    0.30
  WS02003060WS02003069 CONDUIT    551.68     0  02:10      1.64    0.22    0.34
  WS02003066WSF200     CONDUIT    535.15     0  02:09      2.85    0.09    0.22
  WS02003067WS02003066 CONDUIT    535.13     0  02:09      1.21    0.17    0.42
  WS02003069WS02003072 CONDUIT    551.94     0  02:10      1.37    0.27    0.39
  WS02003072WS02003073 CONDUIT    551.89     0  02:11      1.43    1.19    0.37
  WS02004401WS02004402 CONDUIT   1129.97     0  00:01      2.53    1.36    0.86
  WS02004402WS02004403 CONDUIT    958.17     0  00:01      2.28    1.38    0.88
  WS02004403WS02004404 CONDUIT    901.19     0  00:01      2.01    0.65    0.93
  WS02004404WS02004405 CONDUIT    956.81     0  00:01      2.66    9.37    0.96
  WS02004405WS02004406 CONDUIT    909.66     0  00:02      2.38    1.79    0.95
  WS02004406WS02004407 CONDUIT    535.44     0  02:08      1.04    0.24    0.63
  WS02004407WS02004409 CONDUIT    535.35     0  02:08      1.99    0.19    0.48
  WS02004409WS02004410 CONDUIT    535.24     0  02:08      1.32    0.69    0.67
  WS02004410WS02004411 CONDUIT    535.27     0  02:08      1.25    0.73    0.69
  WS02004411WS02004412 CONDUIT    535.14     0  02:08      1.21    0.76    0.69
  WS02004412WS02004413 CONDUIT    535.21     0  02:08      1.21    0.36    0.78
  WS02004413WS02003067 CONDUIT    535.11     0  02:09      1.11    0.23    0.59
  WS02006109WS02006110 CONDUIT   1446.81     0  00:00      2.88    2.78    1.00
  WS02006110WS02006113 CONDUIT    573.52     0  01:48      1.39    0.52    1.00
  WS02006111WS02006112 CONDUIT   2307.30     0  00:00      9.18    1.10    1.00
  WS02006112WS02006115 CONDUIT    946.19     0  00:00      1.26    0.56    1.00
  WS02006113WS02006111 CONDUIT   1180.41     0  00:00      2.47    1.41    1.00
  WS02006115WS02006116 CONDUIT   1209.38     0  00:00      1.69    1.55    1.00
  WS02006116WS02004401 CONDUIT   1858.72     0  00:00      3.17    2.56    0.84
  WS02006228WS02006109 CONDUIT    869.18     0  00:00      1.91    3.80    1.00
  WS02006229WS02006228 CONDUIT    562.44     0  01:48      1.12    1.86    1.00
  WS02006230WS02006229 CONDUIT    615.05     0  00:00      1.88   13.69    1.00
  WS02006231WS02006230 CONDUIT    578.82     0  02:20      2.05    8.78    1.00
  WS02006232WS02006231 CONDUIT    570.76     0  02:10      1.87    1.20    1.00
  WS02006234WS02006232 CONDUIT    569.78     0  02:10      1.48    1.15    1.00
  WS02006235WS02006234 CONDUIT    567.09     0  02:32      1.48    5.98    1.00
  WS02006238WS02006235 CONDUIT    436.41     0  02:33      1.25    0.97    1.00
  WS02006239WS02006238 CONDUIT    429.11     0  02:21      1.12    1.37    1.00
  WS02006240WS02006239 CONDUIT    428.08     0  02:21      1.11    1.35    1.00
  WS02006242WS02006240 CONDUIT    424.56     0  02:21      1.10    1.69    1.00
  WS02006243WS02006242 CONDUIT    424.16     0  02:21      1.16    0.91    1.00
  WS02006245WS02006243 CONDUIT    424.24     0  02:21      1.15    1.25    1.00
  WS02006247WS02006245 CONDUIT    424.82     0  02:21      1.17    3.37    1.00
  WS02006248WS02006247 CONDUIT    425.47     0  02:22      1.26    0.93    1.00
  WS02006249WS02006248 CONDUIT    426.81     0  02:22      1.30    2.34    1.00
  WS02006251WS02006249 CONDUIT    426.29     0  02:22      1.63    1.23    1.00
  WS02006252WS02006251 CONDUIT    406.81     0  03:47     19.84    1.49    1.00
  WS02006256WS02006235 CONDUIT    287.46     0  01:27      4.17    3.04    1.00
  WSF200WS02003060     CONDUIT    535.25     0  02:09      2.06    0.12    0.28
  YS02001580YS02001583 CONDUIT    345.19     0  01:24      1.29    1.34    1.00
  YS02001583YS02001586 CONDUIT    333.24     0  01:24      1.40    0.50    1.00
  YS02001586YS02001590 CONDUIT    317.97     0  01:54      1.38    0.56    1.00
  YS02001590YS02001593 CONDUIT    317.99     0  01:54      1.12    2.00    1.00
  YS02001593YS02001596 CONDUIT    318.07     0  01:53      1.75    0.50    1.00
  YS02001596YS02001600 CONDUIT    318.07     0  01:53      1.20    0.62    1.00
  YS02001600YS02001601 CONDUIT    317.97     0  01:52      1.12    0.55    1.00
  YS02001601YS02001602 CONDUIT    600.54     0  01:24      2.12    2.17    1.00
  YS02001602YS02001605 CONDUIT    600.26     0  01:24      2.12   12.70    1.00
  YS02001605YS02001607 CONDUIT    600.31     0  01:24      2.12    3.29    1.00
  YS02001607YS02001610 CONDUIT    573.02     0  01:24      0.81    0.54    1.00
  YS02001610YS02001613 CONDUIT    530.59     0  01:24      0.75    0.61    1.00
  YS02001613YS02001616 CONDUIT    480.17     0  01:24      0.73    0.41    1.00
  YS02001616YS02001619 CONDUIT    475.76     0  02:08      0.64    0.83    1.00
  YS02001619YS02001622 CONDUIT    974.31     0  01:24      1.57    1.44    1.00
  YS02001622YS02001625 CONDUIT    894.81     0  01:29      1.14    0.48    1.00
  YS02001625YS02001629 CONDUIT    842.03     0  01:57      1.07    0.40    1.00
  YS02001629YS02163301 CONDUIT    844.50     0  01:57      1.08    1.04    1.00
  YS02001633YS02163601 CONDUIT   1279.02     0  01:25      1.63    1.34    1.00
  YS02001641YS02001644 CONDUIT   1262.08     0  01:25      1.61    4.08    1.00
  YS02001644YS02001647 CONDUIT   1922.54     0  01:25      2.45    1.13    1.00
  YS02001647YS02001649 CONDUIT   1927.43     0  01:25      2.45    1.02    1.00
  YS02001649YS02001757 CONDUIT   2180.43     0  01:26      2.78    1.32    1.00
  YS02001652YS02001649 CONDUIT    989.11     0  01:28      1.26    0.49    1.00
  YS02001655YS02001652 CONDUIT    988.98     0  01:28      1.90    0.48    1.00
  YS02001658YS02001655 CONDUIT    988.85     0  01:28      2.25    0.42    1.00
  YS02001661YS02001658 CONDUIT    988.61     0  01:28      2.63    0.39    1.00
  YS02001664YS02001661 CONDUIT    984.58     0  01:28      2.67    0.31    0.91
  YS02001745YS02001748 CONDUIT    654.29     0  01:27      2.54    0.25    1.00
  YS02001748YS02001751 CONDUIT    652.65     0  01:27      2.05    0.33    1.00
  YS02001751YS02001754 CONDUIT    652.36     0  01:27      1.88    0.31    1.00
  YS02001754YS02001757 CONDUIT    652.44     0  01:27      0.83    0.26    1.00
  YS02001757CaochengTiaoxuchi CONDUIT   3573.70     0  01:27      5.01    1.55    1.00
  YS02001759YS02001757 CONDUIT   1451.48     0  01:26      1.85    1.03    1.00
  YS02001762YS02001759 CONDUIT    809.49     0  01:33      1.03    0.93    1.00
  YS02001765YS02001762 CONDUIT    809.41     0  01:33      1.03    0.76    1.00
  YS02001767YS02001765 CONDUIT    809.38     0  01:33      1.03    1.02    1.00
  YS02001770YS02001767 CONDUIT    808.79     0  01:33      1.12    3.20    1.00
  YS02001774YS02001770 CONDUIT    664.15     0  01:26      0.85    0.42    1.00
  YS02001779YS02001774 CONDUIT    643.01     0  01:26      0.87    0.32    1.00
  YS02001783YS02001784 CONDUIT   1254.80     0  02:36      2.50    1.73    1.00
  YS02001784YS02001785 CONDUIT   1254.52     0  02:36      2.50    2.92    1.00
  YS02001786YS02001788 CONDUIT   1254.53     0  02:36      2.62    2.42    0.91
  YS02001788YS02001790 CONDUIT   1256.42     0  02:36      2.81    0.93    0.87
  YS02001790YS02001791 CONDUIT   1354.26     0  02:36      3.49    1.47    0.73
  YS02001791YS02001793 CONDUIT   1323.71     0  02:36      6.77    0.57    0.47
  YS02001793JiankangQianchi CONDUIT   1288.37     0  02:39      2.56    0.10    0.66
  YS02001882YS02001884 CONDUIT     19.84     0  02:57      0.23    0.02    1.00
  YS02001884YS02001887 CONDUIT     44.32     0  03:02      0.18    0.06    1.00
  YS02001887YS02001890 CONDUIT   1988.89     0  02:36      2.53    3.40    1.00
  YS02001890YS02001895 CONDUIT    519.54     0  02:39      0.66    0.24    1.00
  YS02001895YS02001898 CONDUIT    518.64     0  02:38      0.66    0.90    1.00
  YS02001898YS02001901 CONDUIT    518.69     0  02:39      0.66    0.33    1.00
  YS02001901YS02001904 CONDUIT    519.30     0  02:39      0.66    0.81    1.00
  YS02001904YS02001907 CONDUIT    519.94     0  02:39      0.66    0.18    1.00
  YS02001907YS02006553 CONDUIT   1566.50     0  02:36      1.74    1.84    1.00
  YS02001910YS02001907 CONDUIT   1993.03     0  02:37      2.54    1.12    1.00
  YS02001915YS02001910 CONDUIT   1993.18     0  02:39      2.54    0.99    1.00
  YS02001918YS02001915 CONDUIT   1220.59     0  02:37      1.55    0.67    1.00
  YS02001920YS02001918 CONDUIT   1296.85     0  02:36      1.65    1.25    1.00
  YS02001923YS02001920 CONDUIT   1296.63     0  02:36      1.65    0.58    1.00
  YS02001926YS02001923 CONDUIT   1296.18     0  02:36      1.65    1.85    1.00
  YS02001929YS02001926 CONDUIT   1294.97     0  02:36      1.65    0.61    1.00
  YS02006553YS02006556 CONDUIT   1565.90     0  02:36      1.99    1.34    1.00
  YS02006556YS02006558 CONDUIT   1564.23     0  02:36      1.99    1.24    1.00
  YS02006558YS02006561 CONDUIT   1255.07     0  02:36      4.44    2.77    1.00
  YS02006561YS02001783 CONDUIT   1254.54     0  02:36      2.50    0.65    1.00
  YS02163301YS02001633 CONDUIT    845.98     0  01:57      1.08    0.80    1.00
  YS02163601YS02164001 CONDUIT   1273.95     0  01:25      1.62    1.13    1.00
  YS02164001YS02001641 CONDUIT   1264.15     0  01:25      1.61    1.73    1.00
  CC-R1                PUMP       683.00     0  00:00              1.00
  CC-R2                PUMP       683.00     0  00:05              1.00
  CC-S1                PUMP       200.00     0  00:05              1.00
  CC-S2                PUMP       200.00     0  00:00              1.00
  JK-R1                PUMP      1000.00     0  01:31              1.00
  JK-R2                PUMP      1000.00     0  00:00              1.00
  JK-S                 PUMP       300.00     0  00:05              1.00
  
  
  ***************************
  Flow Classification Summary
  ***************************
  
  -------------------------------------------------------------------------------------
                      Adjusted    ---------- Fraction of Time in Flow Class ---------- 
                       /Actual         Up    Down  Sub   Sup   Up    Down  Norm  Inlet 
  Conduit               Length    Dry  Dry   Dry   Crit  Crit  Crit  Crit  Ltd   Ctrl  
  -------------------------------------------------------------------------------------
  1                       1.00   0.00  0.00  0.00  0.00  1.00  0.00  0.00  0.57  0.00
  WS02003060WS02003069    1.00   0.00  0.00  0.00  0.96  0.04  0.00  0.00  0.75  0.00
  WS02003066WSF200        1.00   0.08  0.00  0.00  0.00  0.92  0.00  0.00  0.86  0.00
  WS02003067WS02003066    1.00   0.06  0.02  0.00  0.93  0.00  0.00  0.00  0.00  0.00
  WS02003069WS02003072    1.00   0.00  0.00  0.00  0.98  0.02  0.00  0.00  0.77  0.00
  WS02003072WS02003073    1.00   0.00  0.00  0.00  0.00  0.00  0.00  1.00  0.00  0.00
  WS02004401WS02004402    1.00   0.00  0.00  0.00  1.00  0.00  0.00  0.00  0.00  0.00
  WS02004402WS02004403    1.00   0.00  0.00  0.00  1.00  0.00  0.00  0.00  0.00  0.00
  WS02004403WS02004404    1.00   0.00  0.00  0.00  1.00  0.00  0.00  0.00  0.00  0.00
  WS02004404WS02004405    1.00   0.00  0.00  0.00  1.00  0.00  0.00  0.00  0.01  0.00
  WS02004405WS02004406    1.00   0.00  0.00  0.00  0.99  0.00  0.00  0.00  0.00  0.00
  WS02004406WS02004407    1.00   0.01  0.01  0.00  0.99  0.00  0.00  0.00  0.00  0.00
  WS02004407WS02004409    1.00   0.01  0.00  0.00  0.96  0.03  0.00  0.00  0.99  0.00
  WS02004409WS02004410    1.00   0.01  0.00  0.00  0.98  0.00  0.00  0.00  0.00  0.00
  WS02004410WS02004411    1.00   0.02  0.00  0.00  0.98  0.00  0.00  0.00  0.00  0.00
  WS02004411WS02004412    1.00   0.02  0.00  0.00  0.97  0.01  0.00  0.00  0.00  0.00
  WS02004412WS02004413    1.00   0.03  0.00  0.00  0.96  0.01  0.00  0.00  0.00  0.00
  WS02004413WS02003067    1.00   0.03  0.03  0.00  0.00  0.00  0.94  0.00  0.00  0.00
  WS02006109WS02006110    1.00   0.00  0.00  0.00  1.00  0.00  0.00  0.00  0.00  0.00
  WS02006110WS02006113    1.00   0.00  0.00  0.00  1.00  0.00  0.00  0.00  0.00  0.00
  WS02006111WS02006112    1.00   0.00  0.00  0.00  1.00  0.00  0.00  0.00  1.00  0.00
  WS02006112WS02006115    1.00   0.00  0.00  0.00  1.00  0.00  0.00  0.00  0.00  0.00
  WS02006113WS02006111    1.00   0.00  0.00  0.00  0.01  0.99  0.00  0.00  0.09  0.00
  WS02006115WS02006116    1.00   0.00  0.00  0.00  1.00  0.00  0.00  0.00  0.00  0.00
  WS02006116WS02004401    1.00   0.00  0.00  0.00  1.00  0.00  0.00  0.00  0.00  0.00
  WS02006228WS02006109    1.00   0.00  0.00  0.00  1.00  0.00  0.00  0.00  0.00  0.00
  WS02006229WS02006228    1.00   0.00  0.00  0.00  1.00  0.00  0.00  0.00  0.00  0.00
  WS02006230WS02006229    1.00   0.00  0.00  0.00  1.00  0.00  0.00  0.00  0.01  0.00
  WS02006231WS02006230    1.00   0.00  0.00  0.00  0.40  0.00  0.60  0.00  0.00  0.00
  WS02006232WS02006231    1.00   0.00  0.00  0.00  0.98  0.00  0.02  0.00  0.00  0.00
  WS02006234WS02006232    1.00   0.00  0.00  0.00  0.99  0.00  0.00  0.00  0.15  0.00
  WS02006235WS02006234    1.00   0.01  0.00  0.00  0.81  0.00  0.15  0.02  0.00  0.00
  WS02006238WS02006235    1.00   0.01  0.00  0.00  0.99  0.00  0.00  0.00  0.00  0.00
  WS02006239WS02006238    1.00   0.02  0.01  0.00  0.98  0.00  0.00  0.00  0.32  0.00
  WS02006240WS02006239    1.00   0.02  0.00  0.00  0.70  0.00  0.00  0.28  0.03  0.00
  WS02006242WS02006240    1.00   0.01  0.01  0.00  0.94  0.00  0.04  0.00  0.00  0.00
  WS02006243WS02006242    1.00   0.01  0.00  0.00  0.96  0.00  0.00  0.03  0.66  0.00
  WS02006245WS02006243    1.00   0.01  0.00  0.00  0.77  0.00  0.00  0.23  0.00  0.00
  WS02006247WS02006245    1.00   0.00  0.00  0.00  0.88  0.00  0.00  0.12  0.00  0.00
  WS02006248WS02006247    1.00   0.00  0.00  0.00  0.89  0.00  0.00  0.11  0.37  0.00
  WS02006249WS02006248    1.00   0.00  0.00  0.00  0.62  0.00  0.38  0.00  0.00  0.00
  WS02006251WS02006249    1.00   0.00  0.07  0.00  0.92  0.01  0.00  0.00  0.66  0.00
  WS02006252WS02006251    1.00   0.00  0.34  0.00  0.21  0.00  0.45  0.00  0.00  0.00
  WS02006256WS02006235    1.00   0.01  0.00  0.00  0.97  0.02  0.00  0.00  0.01  0.00
  WSF200WS02003060        1.00   0.00  0.08  0.00  0.33  0.59  0.00  0.00  0.73  0.00
  YS02001580YS02001583    1.00   0.18  0.47  0.00  0.35  0.00  0.00  0.00  0.72  0.00
  YS02001583YS02001586    1.00   0.31  0.20  0.00  0.49  0.00  0.00  0.00  0.72  0.00
  YS02001586YS02001590    1.00   0.15  0.00  0.00  0.62  0.02  0.00  0.21  0.31  0.00
  YS02001590YS02001593    1.00   0.15  0.00  0.00  0.22  0.00  0.63  0.00  0.00  0.00
  YS02001593YS02001596    1.00   0.15  0.00  0.00  0.25  0.02  0.00  0.59  0.02  0.00
  YS02001596YS02001600    1.00   0.15  0.00  0.00  0.37  0.01  0.00  0.47  0.06  0.00
  YS02001600YS02001601    1.00   0.15  0.00  0.00  0.85  0.00  0.00  0.00  0.60  0.00
  YS02001601YS02001602    1.00   0.15  0.00  0.00  0.85  0.00  0.00  0.00  0.00  0.00
  YS02001602YS02001605    1.00   0.15  0.00  0.00  0.85  0.00  0.00  0.00  0.00  0.00
  YS02001605YS02001607    1.00   0.15  0.00  0.00  0.85  0.00  0.00  0.00  0.00  0.00
  YS02001607YS02001610    1.00   0.15  0.00  0.00  0.85  0.00  0.00  0.00  0.01  0.00
  YS02001610YS02001613    1.00   0.15  0.00  0.00  0.85  0.00  0.00  0.00  0.00  0.00
  YS02001613YS02001616    1.00   0.15  0.00  0.00  0.85  0.00  0.00  0.00  0.00  0.00
  YS02001616YS02001619    1.00   0.15  0.00  0.00  0.85  0.00  0.00  0.00  0.00  0.00
  YS02001619YS02001622    1.00   0.15  0.00  0.00  0.85  0.00  0.00  0.00  0.35  0.00
  YS02001622YS02001625    1.00   0.15  0.00  0.00  0.85  0.00  0.00  0.00  0.03  0.00
  YS02001625YS02001629    1.00   0.15  0.02  0.00  0.30  0.00  0.53  0.00  0.00  0.00
  YS02001629YS02163301    1.00   0.15  0.00  0.00  0.84  0.00  0.00  0.00  0.00  0.00
  YS02001633YS02163601    1.00   0.15  0.00  0.00  0.85  0.00  0.00  0.00  0.01  0.00
  YS02001641YS02001644    1.00   0.15  0.00  0.00  0.85  0.00  0.00  0.00  0.00  0.00
  YS02001644YS02001647    1.00   0.15  0.01  0.00  0.84  0.00  0.00  0.00  0.00  0.00
  YS02001647YS02001649    1.00   0.15  0.01  0.00  0.51  0.33  0.00  0.00  0.59  0.00
  YS02001649YS02001757    1.00   0.00  0.15  0.00  0.49  0.36  0.00  0.00  0.20  0.00
  YS02001652YS02001649    1.00   0.15  0.00  0.00  0.83  0.02  0.00  0.00  0.60  0.00
  YS02001655YS02001652    1.00   0.15  0.00  0.00  0.33  0.04  0.00  0.48  0.08  0.00
  YS02001658YS02001655    1.00   0.15  0.00  0.00  0.53  0.32  0.00  0.00  0.71  0.00
  YS02001661YS02001658    1.00   0.15  0.00  0.00  0.41  0.44  0.00  0.00  0.76  0.00
  YS02001664YS02001661    1.00   0.15  0.00  0.00  0.67  0.19  0.00  0.00  0.86  0.00
  YS02001745YS02001748    1.00   0.15  0.00  0.00  0.19  0.01  0.00  0.65  0.06  0.00
  YS02001748YS02001751    1.00   0.15  0.00  0.00  0.61  0.25  0.00  0.00  0.66  0.00
  YS02001751YS02001754    1.00   0.15  0.00  0.00  0.30  0.00  0.00  0.55  0.03  0.00
  YS02001754YS02001757    1.00   0.00  0.15  0.00  0.85  0.01  0.00  0.00  0.68  0.00
  YS02001757CaochengTiaoxuchi    1.00   0.00  0.00  0.00  0.96  0.04  0.00  0.00  0.81  0.00
  YS02001759YS02001757    1.00   0.00  0.15  0.00  0.84  0.01  0.00  0.00  0.56  0.00
  YS02001762YS02001759    1.00   0.15  0.00  0.00  0.85  0.00  0.00  0.00  0.01  0.00
  YS02001765YS02001762    1.00   0.15  0.00  0.00  0.85  0.00  0.00  0.00  0.61  0.00
  YS02001767YS02001765    1.00   0.15  0.00  0.00  0.85  0.00  0.00  0.00  0.00  0.00
  YS02001770YS02001767    1.00   0.15  0.00  0.00  0.85  0.00  0.00  0.00  0.00  0.00
  YS02001774YS02001770    1.00   0.15  0.00  0.00  0.70  0.00  0.15  0.00  0.01  0.00
  YS02001779YS02001774    1.00   0.15  0.30  0.00  0.55  0.00  0.00  0.00  0.62  0.00
  YS02001783YS02001784    1.00   0.16  0.00  0.00  0.84  0.00  0.00  0.00  0.55  0.00
  YS02001784YS02001785    1.00   0.16  0.00  0.00  0.84  0.00  0.00  0.00  0.41  0.00
  YS02001786YS02001788    1.00   0.16  0.00  0.00  0.47  0.36  0.00  0.00  0.00  0.00
  YS02001788YS02001790    1.00   0.17  0.00  0.00  0.22  0.61  0.00  0.00  0.60  0.00
  YS02001790YS02001791    1.00   0.17  0.00  0.00  0.00  0.83  0.00  0.00  0.14  0.00
  YS02001791YS02001793    1.00   0.17  0.00  0.00  0.00  0.83  0.00  0.00  0.02  0.00
  YS02001793JiankangQianchi    1.00   0.00  0.17  0.00  0.79  0.04  0.00  0.00  0.77  0.00
  YS02001882YS02001884    1.00   0.15  0.00  0.00  0.84  0.00  0.00  0.00  0.00  0.00
  YS02001884YS02001887    1.00   0.15  0.00  0.00  0.85  0.00  0.00  0.00  0.00  0.00
  YS02001887YS02001890    1.00   0.15  0.00  0.00  0.85  0.00  0.00  0.00  0.00  0.00
  YS02001890YS02001895    1.00   0.15  0.01  0.00  0.84  0.00  0.00  0.00  0.00  0.00
  YS02001895YS02001898    1.00   0.16  0.00  0.00  0.83  0.00  0.01  0.00  0.00  0.00
  YS02001898YS02001901    1.00   0.16  0.00  0.00  0.84  0.00  0.00  0.00  0.01  0.00
  YS02001901YS02001904    1.00   0.16  0.00  0.00  0.84  0.00  0.00  0.00  0.00  0.00
  YS02001904YS02001907    1.00   0.15  0.01  0.00  0.84  0.00  0.00  0.00  0.00  0.00
  YS02001907YS02006553    1.00   0.15  0.00  0.00  0.85  0.00  0.00  0.00  0.00  0.00
  YS02001910YS02001907    1.00   0.15  0.00  0.00  0.85  0.00  0.00  0.01  0.01  0.00
  YS02001915YS02001910    1.00   0.15  0.00  0.00  0.84  0.01  0.00  0.00  0.01  0.00
  YS02001918YS02001915    1.00   0.15  0.01  0.00  0.84  0.00  0.00  0.00  0.66  0.00
  YS02001920YS02001918    1.00   0.15  0.01  0.00  0.84  0.00  0.00  0.00  0.00  0.00
  YS02001923YS02001920    1.00   0.15  0.00  0.00  0.85  0.00  0.00  0.00  0.73  0.00
  YS02001926YS02001923    1.00   0.15  0.00  0.00  0.17  0.00  0.68  0.00  0.00  0.00
  YS02001929YS02001926    1.00   0.15  0.00  0.00  0.85  0.00  0.00  0.00  0.78  0.00
  YS02006553YS02006556    1.00   0.15  0.00  0.00  0.85  0.00  0.00  0.00  0.00  0.00
  YS02006556YS02006558    1.00   0.15  0.00  0.00  0.85  0.00  0.00  0.00  0.00  0.00
  YS02006558YS02006561    1.00   0.16  0.00  0.00  0.15  0.68  0.00  0.00  0.13  0.00
  YS02006561YS02001783    1.00   0.16  0.00  0.00  0.33  0.51  0.00  0.00  0.64  0.00
  YS02163301YS02001633    1.00   0.15  0.01  0.00  0.85  0.00  0.00  0.00  0.00  0.00
  YS02163601YS02164001    1.00   0.15  0.00  0.00  0.85  0.00  0.00  0.00  0.01  0.00
  YS02164001YS02001641    1.00   0.15  0.01  0.00  0.85  0.00  0.00  0.00  0.00  0.00
  
  
  *************************
  Conduit Surcharge Summary
  *************************
  
  ----------------------------------------------------------------------------
                                                           Hours        Hours 
                         --------- Hours Full --------   Above Full   Capacity
  Conduit                Both Ends  Upstream  Dnstream   Normal Flow   Limited
  ----------------------------------------------------------------------------
  WS02003072WS02003073        0.01      0.01      0.01      1.16         0.01
  WS02004401WS02004402        0.01      0.01      0.01      0.01         0.01
  WS02004402WS02004403        0.01      0.01      0.01      0.01         0.01
  WS02004404WS02004405        0.01      0.01      0.01      2.54         0.01
  WS02004405WS02004406        0.01      0.01      0.01      0.77         0.01
  WS02006109WS02006110        0.79      0.79      1.69      0.88         0.01
  WS02006110WS02006113        0.01      0.01      1.68      0.01         0.01
  WS02006111WS02006112        0.01      0.01      1.89      0.01         0.01
  WS02006112WS02006115        0.01      0.01      0.94      0.01         0.01
  WS02006113WS02006111        0.01      0.01      0.01      0.01         0.01
  WS02006115WS02006116        0.01      0.01      0.01      0.02         0.01
  WS02006116WS02004401        0.01      0.01      0.01      0.02         0.01
  WS02006228WS02006109        1.66      1.68      1.66      1.95         1.65
  WS02006229WS02006228        1.65      1.67      1.65      1.86         1.64
  WS02006230WS02006229        1.72      1.82      1.74      2.95         1.72
  WS02006231WS02006230        0.80      0.80      1.01      2.60         0.01
  WS02006232WS02006231        0.95      0.95      1.68      1.02         0.01
  WS02006234WS02006232        1.59      1.59      1.68      0.99         0.97
  WS02006235WS02006234        1.14      1.15      1.58      2.38         0.04
  WS02006238WS02006235        1.60      1.60      1.68      0.01         0.02
  WS02006239WS02006238        1.64      1.66      1.64      1.66         1.46
  WS02006240WS02006239        1.62      1.65      1.62      1.65         1.36
  WS02006242WS02006240        1.65      1.65      1.67      1.72         0.01
  WS02006243WS02006242        1.64      1.64      1.66      0.01         0.08
  WS02006245WS02006243        1.64      1.64      1.64      0.79         0.86
  WS02006247WS02006245        1.64      1.64      1.64      2.13         1.60
  WS02006248WS02006247        1.63      1.63      1.64      0.01         0.10
  WS02006249WS02006248        1.63      1.63      1.63      2.06         0.01
  WS02006251WS02006249        1.63      1.63      1.63      1.66         1.55
  WS02006252WS02006251        1.72      1.72      1.75      1.72         0.01
  WS02006256WS02006235        2.34      2.43      4.98      1.34         0.01
  YS02001580YS02001583        0.67      0.67      0.72      0.01         0.01
  YS02001583YS02001586        0.68      0.68      0.81      0.01         0.01
  YS02001586YS02001590        0.81      0.81      0.88      0.01         0.01
  YS02001590YS02001593        0.88      0.88      0.90      0.98         0.01
  YS02001593YS02001596        0.89      0.89      0.98      0.01         0.01
  YS02001596YS02001600        1.01      1.01      1.13      0.01         0.01
  YS02001600YS02001601        1.20      1.20      1.61      0.01         0.01
  YS02001601YS02001602        1.43      1.43      1.68      1.16         0.01
  YS02001602YS02001605        1.36      1.36      1.43      2.19         0.01
  YS02001605YS02001607        1.30      1.36      1.30      1.54         1.30
  YS02001607YS02001610        0.84      0.84      0.87      0.01         0.01
  YS02001610YS02001613        0.83      0.83      0.87      0.01         0.01
  YS02001613YS02001616        0.79      0.79      0.83      0.01         0.01
  YS02001616YS02001619        0.78      0.78      0.79      0.01         0.01
  YS02001619YS02001622        0.78      0.78      0.78      0.91         0.76
  YS02001622YS02001625        0.78      0.78      0.96      0.01         0.01
  YS02001625YS02001629        0.72      0.72      0.96      0.01         0.01
  YS02001629YS02163301        0.95      0.95      0.95      0.23         0.22
  YS02001633YS02163601        0.97      0.97      1.00      0.46         0.45
  YS02001641YS02001644        0.89      0.91      0.89      1.70         0.88
  YS02001644YS02001647        0.68      0.68      0.89      0.02         0.01
  YS02001647YS02001649        0.68      0.68      0.82      0.01         0.01
  YS02001649YS02001757        0.82      0.82      0.88      0.35         0.33
  YS02001652YS02001649        0.60      0.60      0.82      0.01         0.01
  YS02001655YS02001652        0.37      0.37      0.58      0.01         0.01
  YS02001658YS02001655        0.17      0.17      0.37      0.01         0.01
  YS02001661YS02001658        0.02      0.02      0.17      0.01         0.01
  YS02001664YS02001661        0.01      0.01      0.02      0.01         0.01
  YS02001745YS02001748        0.01      0.01      0.04      0.01         0.01
  YS02001748YS02001751        0.14      0.14      0.23      0.01         0.01
  YS02001751YS02001754        0.23      0.23      0.43      0.01         0.01
  YS02001754YS02001757        0.50      0.50      0.88      0.01         0.01
  YS02001757CaochengTiaoxuchi        0.76      0.88      1.51      0.41         0.28
  YS02001759YS02001757        0.77      0.77      0.88      0.01         0.02
  YS02001762YS02001759        0.74      0.74      0.77      0.01         0.01
  YS02001765YS02001762        0.68      0.68      0.74      0.01         0.01
  YS02001767YS02001765        0.63      0.63      0.68      0.02         0.04
  YS02001770YS02001767        0.62      0.62      0.63      0.53         0.47
  YS02001774YS02001770        0.60      0.60      0.71      0.01         0.01
  YS02001779YS02001774        0.42      0.42      0.71      0.01         0.01
  YS02001783YS02001784        0.85      0.89      0.85      1.13         0.85
  YS02001784YS02001785        0.71      0.85      0.71      1.48         0.71
  YS02001786YS02001788        0.01      0.71      0.01      1.36         0.01
  YS02001790YS02001791        0.01      0.01      0.01      0.83         0.01
  YS02001793JiankangQianchi        0.01      0.01      4.28      0.01         0.01
  YS02001882YS02001884        0.81      0.81      0.83      0.01         0.01
  YS02001884YS02001887        0.86      0.86      0.87      0.01         0.01
  YS02001887YS02001890        0.89      0.89      0.91      0.31         0.01
  YS02001890YS02001895        0.79      0.79      0.94      0.01         0.01
  YS02001895YS02001898        0.78      0.78      0.79      0.01         0.01
  YS02001898YS02001901        0.79      0.79      0.86      0.01         0.01
  YS02001901YS02001904        0.84      0.84      0.86      0.01         0.01
  YS02001904YS02001907        0.84      0.84      1.33      0.01         0.01
  YS02001907YS02006553        1.50      1.50      1.56      0.07         0.07
  YS02001910YS02001907        0.93      0.93      1.30      0.17         0.16
  YS02001915YS02001910        0.81      0.81      0.93      0.01         0.03
  YS02001918YS02001915        0.69      0.69      0.81      0.01         0.01
  YS02001920YS02001918        0.69      0.69      0.71      0.06         0.01
  YS02001923YS02001920        0.65      0.65      0.71      0.01         0.01
  YS02001926YS02001923        0.28      0.28      0.32      0.13         0.01
  YS02001929YS02001926        0.18      0.18      0.32      0.01         0.01
  YS02006553YS02006556        1.07      1.07      1.33      0.05         0.05
  YS02006556YS02006558        1.21      1.21      1.35      0.04         0.01
  YS02006558YS02006561        0.74      1.05      0.74      1.44         0.74
  YS02006561YS02001783        0.65      0.65      0.89      0.01         0.01
  YS02163301YS02001633        0.95      0.95      0.99      0.01         0.01
  YS02163601YS02164001        0.92      0.92      1.00      0.01         0.01
  YS02164001YS02001641        0.91      0.92      0.91      0.82         0.72
  
  
  ***************
  Pumping Summary
  ***************
  
  ---------------------------------------------------------------------------------------------------------
                                                  Min       Avg       Max     Total     Power    % Time Off
                        Percent   Number of      Flow      Flow      Flow    Volume     Usage    Pump Curve
  Pump                 Utilized   Start-Ups       LPS       LPS       LPS  10^6 ltr     Kw-hr    Low   High
  ---------------------------------------------------------------------------------------------------------
  CC-R1                   23.33          44      0.00    683.00    683.00     4.588     83.46    0.0   28.2
  CC-R2                   23.51          57      0.00    683.00    683.00     4.624     83.75    0.0   32.6
  CC-S1                   25.29          51      0.00    200.00    200.00     1.457      8.49    0.0    0.0
  CC-S2                   24.52          38      0.00    200.00    200.00     1.413      8.23    0.0    0.0
  JK-R1                    6.36         106      0.00   1000.00   1000.00     1.831     16.62    0.0    0.0
  JK-R2                    8.73          60      0.00   1000.00   1000.00     2.515     22.70    0.0    0.0
  JK-S                    16.34          64      0.00    300.00    300.00     1.412     23.83    0.0    0.0
  

  Analysis begun on:  Thu Sep  7 21:56:01 2023
  Analysis ended on:  Thu Sep  7 21:56:39 2023
  Total elapsed time: 00:00:38