
  OWA STORM WATER MANAGEMENT MODEL - VERSION v5.1.14 (OWA 2022-07-31)
  --------------------------------------------------------------

  WARNING 04: minimum elevation drop used for Conduit WS02004404WS02004405
  WARNING 03: negative offset ignored for Link YS02001904YS02001907
  
  *********************************************************
  NOTE: The summary statistics displayed in this report are
  based on results found at every computational time step,  
  not just on results from each reporting time step.
  *********************************************************
  
  ****************
  Analysis Options
  ****************
  Flow Units ............... LPS
  Process Models:
    Rainfall/Runoff ........ YES
    RDII ................... NO
    Snowmelt ............... NO
    Groundwater ............ NO
    Flow Routing ........... YES
    Ponding Allowed ........ NO
    Water Quality .......... NO
  Infiltration Method ...... HORTON
  Flow Routing Method ...... DYNWAVE
  Surcharge Method ......... EXTRAN
  Starting Date ............ 08/28/2015 08:00:00
  Ending Date .............. 08/28/2015 16:00:00
  Antecedent Dry Days ...... 8.0
  Report Time Step ......... 00:01:00
  Wet Time Step ............ 00:01:00
  Dry Time Step ............ 00:01:00
  Routing Time Step ........ 30.00 sec
  Variable Time Step ....... YES
  Maximum Trials ........... 8
  Number of Threads ........ 4
  Head Tolerance ........... 0.001500 m
  
  
  **************************        Volume         Depth
  Runoff Quantity Continuity     hectare-m            mm
  **************************     ---------       -------
  Initial LID Storage ......         0.049         1.488
  Total Precipitation ......         6.314       190.353
  Evaporation Loss .........         0.000         0.000
  Infiltration Loss ........         0.084         2.534
  Surface Runoff ...........         5.438       163.950
  Final Storage ............         0.842        25.398
  Continuity Error (%) .....        -0.021
  
  
  **************************        Volume        Volume
  Flow Routing Continuity        hectare-m      10^6 ltr
  **************************     ---------     ---------
  Dry Weather Inflow .......         0.025         0.251
  Wet Weather Inflow .......         5.438        54.380
  Groundwater Inflow .......         0.000         0.000
  RDII Inflow ..............         0.000         0.000
  External Inflow ..........         0.083         0.834
  External Outflow .........         2.569        25.693
  Flooding Loss ............         3.201        32.007
  Evaporation Loss .........         0.000         0.000
  Exfiltration Loss ........         0.000         0.000
  Initial Stored Volume ....         0.248         2.479
  Final Stored Volume ......         0.033         0.333
  Continuity Error (%) .....        -0.155
  
  
  *************************
  Highest Continuity Errors
  *************************
  Node WS02006242 (9.87%)
  Node WS02004406 (8.71%)
  Node WS02004413 (6.51%)
  Node WS02006249 (5.66%)
  Node WS02004405 (5.17%)
  
  
  ***************************
  Time-Step Critical Elements
  ***************************
  Link 3 (98.39%)
  
  
  ********************************
  Highest Flow Instability Indexes
  ********************************
  Link YS02001607YS02001610 (10)
  Link YS02001602YS02001605 (9)
  Link YS02001580YS02001583 (8)
  Link YS02006558YS02006561 (8)
  Link YS02001605YS02001607 (8)
  
  
  *************************
  Routing Time Step Summary
  *************************
  Minimum Time Step           :     0.00 sec
  Average Time Step           :     1.67 sec
  Maximum Time Step           :     5.20 sec
  Percent in Steady State     :     0.00
  Average Iterations per Step :     2.73
  Percent Not Converging      :     8.21
  
  
  ***************************
  Subcatchment Runoff Summary
  ***************************
  
  ------------------------------------------------------------------------------------------------------------------------------
                            Total      Total      Total      Total     Imperv       Perv      Total       Total     Peak  Runoff
                           Precip      Runon       Evap      Infil     Runoff     Runoff     Runoff      Runoff   Runoff   Coeff
  Subcatchment                 mm         mm         mm         mm         mm         mm         mm    10^6 ltr      LPS
  ------------------------------------------------------------------------------------------------------------------------------
  sub60                    238.15       0.00       0.00       1.48     160.84      20.58     205.34        2.70  2062.90   0.862
  sub61                    238.15       0.00       0.00       2.28     160.69      30.82     210.64        3.87  2864.33   0.884
  sub62                    238.15       0.00       0.00       1.00     171.35      13.98     207.71        5.69  4197.74   0.872
  sub63                    238.15       0.00       0.00       4.23     137.64      52.31     208.97        4.74  3439.42   0.877
  sub64                    238.15       0.00       0.00       2.02     156.78      25.81     205.76        4.94  3606.88   0.864
  sub65                    238.15       0.00       0.00       1.86     169.25      23.59     211.53        5.82  4083.83   0.888
  sub66                    238.15       0.00       0.00       5.03     133.25      49.73     204.69        9.54  6323.56   0.859
  sub67                     53.84       0.00       0.00       0.92      38.92       2.55      41.47        0.77   518.94   0.770
  sub68                     53.84       0.00       0.00       1.60      34.37       4.15      38.52        1.06   643.60   0.715
  sub69                    238.15       0.00       0.00       1.66     160.34      26.65     208.75        7.73  5478.46   0.877
  sub70                    238.15       0.00       0.00       5.73     128.58      60.56     208.15        6.01  3686.17   0.874
  sub71                     53.84       0.00       0.00       0.85      34.48       2.23      36.71        0.96   526.92   0.682
  sub72                     53.84       0.00       0.00       0.81      37.24       2.07      39.31        0.54   265.71   0.730
  

  ***********************
  LID Performance Summary
  ***********************

  --------------------------------------------------------------------------------------------------------------------
                                         Total      Evap     Infil   Surface    Drain    Initial     Final  Continuity
                                        Inflow      Loss      Loss   Outflow   Outflow   Storage   Storage       Error
  Subcatchment      LID Control             mm        mm        mm        mm        mm        mm        mm           %
  --------------------------------------------------------------------------------------------------------------------
  sub60             GreenRoof           238.15      0.00      0.00    104.78      0.00      7.05    140.42        0.00
  sub61             GreenRoof           238.15      0.00      0.00    104.78      0.00      7.05    140.42        0.00
  sub62             GreenRoof           238.15      0.00      0.00    104.78      0.00      7.05    140.42        0.00
  sub63             GreenRoof           238.15      0.00      0.00    104.78      0.00      7.05    140.42        0.00
  sub64             GreenRoof           238.15      0.00      0.00    104.78      0.00      7.05    140.42        0.00
  sub65             GreenRoof           238.15      0.00      0.00    104.78      0.00      7.05    140.42        0.00
  sub66             GreenRoof           238.15      0.00      0.00    104.78      0.00      7.05    140.42        0.00
  sub67             GreenRoof            53.84      0.00      0.00      0.00      0.00      7.05     60.96       -0.12
  sub68             GreenRoof            53.84      0.00      0.00      0.00      0.00      7.05     60.96       -0.12
  sub69             GreenRoof           238.15      0.00      0.00    104.78      0.00      7.05    140.42        0.00
  sub70             GreenRoof           238.15      0.00      0.00    104.78      0.00      7.05    140.42        0.00
  sub71             GreenRoof            53.84      0.00      0.00      0.00      0.00      7.05     60.96       -0.12
  sub72             GreenRoof            53.84      0.00      0.00      0.00      0.00      7.05     60.96       -0.12
  
  ******************
  Node Depth Summary
  ******************
  
  ---------------------------------------------------------------------------------
                                 Average  Maximum  Maximum  Time of Max    Reported
                                   Depth    Depth      HGL   Occurrence   Max Depth
  Node                 Type       Meters   Meters   Meters  days hr:min      Meters
  ---------------------------------------------------------------------------------
  WS02003060           JUNCTION     0.07     0.09     5.02     0  06:06        0.09
  WS02003066           JUNCTION     0.02     0.09     5.65     0  05:00        0.09
  WS02003067           JUNCTION     0.09     0.33     5.65     0  04:59        0.33
  WS02003069           JUNCTION     0.08     0.10     4.68     0  06:55        0.10
  WS02003072           JUNCTION     0.13     0.15     4.52     0  06:57        0.15
  WS02003073           JUNCTION     0.06     0.07     4.14     0  07:46        0.07
  WS02004401           JUNCTION     0.26     0.36     6.36     0  04:44        0.36
  WS02004402           JUNCTION     0.29     0.40     6.36     0  04:33        0.40
  WS02004403           JUNCTION     0.32     0.43     6.36     0  04:24        0.43
  WS02004404           JUNCTION     0.39     0.51     6.36     0  04:31        0.51
  WS02004405           JUNCTION     0.39     0.51     6.36     0  04:27        0.51
  WS02004406           JUNCTION     0.41     0.53     6.36     0  04:47        0.53
  WS02004407           JUNCTION     0.02     0.05     6.36     0  05:14        0.05
  WS02004409           JUNCTION     0.05     0.12     5.89     0  05:45        0.12
  WS02004410           JUNCTION     0.06     0.17     5.89     0  05:06        0.17
  WS02004411           JUNCTION     0.07     0.20     5.88     0  04:42        0.20
  WS02004412           JUNCTION     0.08     0.24     5.88     0  04:31        0.24
  WS02004413           JUNCTION     0.15     0.41     5.88     0  04:45        0.41
  WS02006109           JUNCTION     0.33     0.35     6.96     0  03:26        0.35
  WS02006110           JUNCTION     0.36     0.38     6.96     0  03:52        0.38
  WS02006111           JUNCTION     0.05     0.05     6.76     0  06:32        0.05
  WS02006112           JUNCTION     0.39     0.48     6.36     0  05:48        0.48
  WS02006113           JUNCTION     0.06     0.07     6.96     0  04:26        0.07
  WS02006115           JUNCTION     0.15     0.22     6.36     0  05:22        0.22
  WS02006116           JUNCTION     0.22     0.32     6.36     0  04:55        0.32
  WS02006228           JUNCTION     0.30     0.31     6.96     0  02:57        0.31
  WS02006229           JUNCTION     0.26     0.27     6.96     0  02:41        0.27
  WS02006230           JUNCTION     0.21     0.22     6.97     0  03:03        0.22
  WS02006231           JUNCTION     0.00     0.00     7.12     0  00:00        0.00
  WS02006232           JUNCTION     0.00     0.00     7.04     0  00:00        0.00
  WS02006234           JUNCTION     0.00     0.00     7.16     0  00:00        0.00
  WS02006235           JUNCTION     0.01     0.01     7.17     0  08:00        0.01
  WS02006238           JUNCTION     0.02     0.03     7.17     0  08:00        0.03
  WS02006239           JUNCTION     0.01     0.01     7.22     0  01:58        0.01
  WS02006240           JUNCTION     0.01     0.01     7.31     0  08:00        0.01
  WS02006242           JUNCTION     0.03     0.04     7.31     0  08:00        0.04
  WS02006243           JUNCTION     0.01     0.01     7.43     0  01:26        0.01
  WS02006245           JUNCTION     0.01     0.01     7.50     0  08:00        0.01
  WS02006247           JUNCTION     0.01     0.02     7.52     0  01:01        0.02
  WS02006248           JUNCTION     0.01     0.01     7.60     0  00:39        0.01
  WS02006249           JUNCTION     0.02     0.02     7.62     0  08:00        0.02
  WS02006251           JUNCTION     0.01     0.01     7.68     0  00:06        0.01
  WS02006252           JUNCTION     0.00     0.00     8.24     0  00:00        0.00
  WS02006256           JUNCTION     0.00     0.00     6.94     0  08:00        0.00
  WSF200               JUNCTION     0.01     0.05     5.28     0  05:14        0.05
  YS02001580           JUNCTION     0.32     1.05     9.59     0  01:34        0.77
  YS02001583           JUNCTION     0.36     0.96     9.46     0  01:34        0.81
  YS02001586           JUNCTION     0.53     1.13     9.30     0  01:34        1.13
  YS02001590           JUNCTION     0.68     1.40     9.26     0  01:34        1.37
  YS02001593           JUNCTION     0.61     1.33     9.19     0  01:34        1.28
  YS02001596           JUNCTION     0.80     1.68     9.10     0  01:34        1.65
  YS02001600           JUNCTION     0.92     1.87     9.00     0  01:34        1.87
  YS02001601           JUNCTION     1.11     2.06     8.90     0  01:33        2.06
  YS02001602           JUNCTION     0.98     1.87     8.77     0  01:45        1.87
  YS02001605           JUNCTION     0.91     1.78     8.68     0  01:48        1.78
  YS02001607           JUNCTION     0.84     1.67     8.52     0  01:48        1.67
  YS02001610           JUNCTION     0.88     1.68     8.48     0  01:48        1.68
  YS02001613           JUNCTION     0.84     1.70     8.54     0  01:48        1.70
  YS02001616           JUNCTION     0.78     1.61     8.52     0  01:48        1.61
  YS02001619           JUNCTION     0.76     1.61     8.54     0  01:48        1.61
  YS02001622           JUNCTION     0.74     1.62     8.52     0  01:48        1.62
  YS02001625           JUNCTION     0.98     1.78     8.38     0  01:48        1.78
  YS02001629           JUNCTION     0.91     1.85     8.40     0  01:52        1.85
  YS02001633           JUNCTION     0.99     2.08     8.53     0  02:06        2.08
  YS02001641           JUNCTION     0.92     1.97     8.40     0  02:16        1.96
  YS02001644           JUNCTION     0.90     1.92     8.35     0  01:58        1.92
  YS02001647           JUNCTION     0.67     1.79     8.40     0  02:16        1.79
  YS02001649           JUNCTION     0.75     2.05     8.44     0  02:15        2.05
  YS02001652           JUNCTION     0.63     2.15     8.74     0  02:21        2.14
  YS02001655           JUNCTION     0.52     2.20     9.05     0  02:19        2.20
  YS02001658           JUNCTION     0.43     2.30     9.44     0  02:19        2.30
  YS02001661           JUNCTION     0.42     2.46     9.86     0  02:19        2.46
  YS02001664           JUNCTION     0.26     2.31    10.23     0  02:19        2.31
  YS02001745           JUNCTION     0.24     1.98     9.49     0  02:24        1.98
  YS02001748           JUNCTION     0.36     2.15     9.22     0  02:24        2.15
  YS02001751           JUNCTION     0.42     2.09     8.97     0  02:24        2.09
  YS02001754           JUNCTION     0.54     2.12     8.73     0  02:24        2.12
  YS02001757           JUNCTION     0.75     2.20     8.46     0  02:24        2.20
  YS02001759           JUNCTION     0.70     2.21     8.57     0  02:19        2.21
  YS02001762           JUNCTION     0.68     2.15     8.55     0  02:20        2.15
  YS02001765           JUNCTION     0.66     2.08     8.53     0  02:21        2.08
  YS02001767           JUNCTION     0.64     2.03     8.52     0  01:55        2.03
  YS02001770           JUNCTION     0.65     1.95     8.44     0  01:55        1.95
  YS02001774           JUNCTION     0.72     2.01     8.43     0  02:04        2.01
  YS02001779           JUNCTION     0.52     1.68     8.37     0  02:02        1.68
  YS02001783           JUNCTION     0.28     1.58     7.72     0  01:38        1.22
  YS02001784           JUNCTION     0.30     1.30     7.37     0  01:38        1.10
  YS02001786           JUNCTION     0.25     1.00     7.03     0  01:38        0.86
  YS02001788           JUNCTION     0.18     0.62     6.59     0  01:43        0.61
  YS02001790           JUNCTION     0.21     0.71     6.36     0  01:48        0.71
  YS02001791           JUNCTION     0.14     0.44     5.91     0  01:44        0.43
  YS02001793           JUNCTION     0.07     0.22     5.05     0  01:40        0.22
  YS02001882           JUNCTION     0.34     1.83     8.55     0  01:37        1.70
  YS02001884           JUNCTION     0.43     1.93     8.55     0  01:37        1.78
  YS02001887           JUNCTION     0.51     1.91     8.45     0  01:37        1.83
  YS02001890           JUNCTION     0.54     1.81     8.32     0  01:37        1.81
  YS02001895           JUNCTION     0.31     1.75     8.50     0  01:37        1.55
  YS02001898           JUNCTION     0.32     1.77     8.51     0  01:37        1.55
  YS02001901           JUNCTION     0.43     1.87     8.48     0  01:37        1.66
  YS02001904           JUNCTION     0.41     1.70     8.33     0  01:37        1.63
  YS02001907           JUNCTION     0.72     1.96     8.25     0  01:38        1.96
  YS02001910           JUNCTION     0.52     2.07     8.58     0  01:37        1.81
  YS02001915           JUNCTION     0.34     2.00     8.72     0  01:37        1.67
  YS02001918           JUNCTION     0.18     1.81     8.88     0  01:38        1.36
  YS02001920           JUNCTION     0.26     2.11     9.12     0  01:39        1.44
  YS02001923           JUNCTION     0.13     2.03     9.29     0  01:39        1.23
  YS02001926           JUNCTION     0.17     1.90     9.35     0  01:39        1.07
  YS02001929           JUNCTION     0.09     1.78     9.47     0  01:39        0.84
  YS02006553           JUNCTION     0.72     2.06     8.34     0  01:38        1.96
  YS02006556           JUNCTION     0.70     2.13     8.45     0  01:38        1.92
  YS02006558           JUNCTION     0.74     2.20     8.46     0  01:38        1.95
  YS02006561           JUNCTION     0.17     1.37     8.03     0  01:38        0.87
  YS02163301           JUNCTION     0.94     1.96     8.48     0  02:06        1.96
  YS02163601           JUNCTION     1.00     2.08     8.48     0  02:17        2.07
  YS02164001           JUNCTION     0.92     1.97     8.43     0  02:16        1.97
  CC-1                 OUTFALL      0.12     0.73     0.73     0  00:00        0.38
  CC-2                 OUTFALL      0.12     0.73     0.73     0  00:00        0.38
  JK-1                 OUTFALL      0.07     1.00     1.00     0  00:00        0.20
  JK-2                 OUTFALL      0.07     1.00     1.00     0  00:00        0.20
  WSC                  OUTFALL      0.06     0.07     0.74     0  07:46        0.07
  CC-storage           STORAGE      0.12     0.80     6.30     0  00:00        0.38
  JK-storage           STORAGE      0.07     3.00     3.80     0  00:00        0.20
  
  
  *******************
  Node Inflow Summary
  *******************
  
  -------------------------------------------------------------------------------------------------
                                  Maximum  Maximum                  Lateral       Total        Flow
                                  Lateral    Total  Time of Max      Inflow      Inflow     Balance
                                   Inflow   Inflow   Occurrence      Volume      Volume       Error
  Node                 Type           LPS      LPS  days hr:min    10^6 ltr    10^6 ltr     Percent
  -------------------------------------------------------------------------------------------------
  WS02003060           JUNCTION     16.53    28.24     0  05:14       0.476       0.648       0.306
  WS02003066           JUNCTION      0.00    11.71     0  04:46           0       0.173       0.656
  WS02003067           JUNCTION      0.00    11.71     0  04:49           0       0.177       2.316
  WS02003069           JUNCTION      0.32    28.56     0  06:06     0.00922       0.655       0.521
  WS02003072           JUNCTION      0.00    28.56     0  06:55           0       0.651       0.949
  WS02003073           JUNCTION      1.82    30.38     0  06:57      0.0524       0.698       0.697
  WS02004401           JUNCTION      0.00    11.54     0  01:26           0       0.273       3.725
  WS02004402           JUNCTION      0.00    11.54     0  04:12           0       0.263       3.970
  WS02004403           JUNCTION      0.00    11.64     0  01:16           0       0.253       4.015
  WS02004404           JUNCTION      0.16    11.76     0  04:01     0.00467       0.248       3.371
  WS02004405           JUNCTION      0.04    11.81     0  04:05      0.0011       0.241       5.457
  WS02004406           JUNCTION      0.00    11.74     0  04:20           0       0.228       9.537
  WS02004407           JUNCTION      0.00    11.71     0  04:53           0       0.208       0.483
  WS02004409           JUNCTION      0.00    11.71     0  05:14           0       0.207       1.086
  WS02004410           JUNCTION      0.00    11.71     0  04:42           0       0.205       1.906
  WS02004411           JUNCTION      0.00    11.74     0  04:18           0       0.201       2.583
  WS02004412           JUNCTION      0.00    11.84     0  04:09           0       0.196       3.672
  WS02004413           JUNCTION      0.00    12.01     0  04:07           0       0.189       6.960
  WS02006109           JUNCTION      1.23    11.51     0  02:21      0.0354        0.32       3.069
  WS02006110           JUNCTION      0.00    11.51     0  03:02           0        0.31       2.710
  WS02006111           JUNCTION      0.00    11.51     0  04:52           0       0.301       0.183
  WS02006112           JUNCTION      0.00    11.51     0  04:26           0         0.3       4.865
  WS02006113           JUNCTION      0.00    11.51     0  03:42           0       0.302       0.389
  WS02006115           JUNCTION      0.00    11.82     0  01:53           0       0.287       2.336
  WS02006116           JUNCTION      0.00    12.06     0  01:53           0        0.28       2.659
  WS02006228           JUNCTION      0.00    10.28     0  01:59           0        0.29       1.978
  WS02006229           JUNCTION      0.00    10.54     0  00:16           0       0.293       1.040
  WS02006230           JUNCTION     10.28    10.28     0  00:00       0.296       0.296       0.998
  WS02006231           JUNCTION      0.00     0.00     0  00:00           0           0       0.000 ltr
  WS02006232           JUNCTION      0.00     0.00     0  00:00           0           0       0.000 ltr
  WS02006234           JUNCTION      0.00     0.00     0  00:00           0           0       0.000 ltr
  WS02006235           JUNCTION      0.00     0.08     0  08:00           0     0.00163       0.634
  WS02006238           JUNCTION      0.00     0.08     0  08:00           0     0.00167       2.309
  WS02006239           JUNCTION      0.00     0.08     0  08:00           0     0.00169       1.272
  WS02006240           JUNCTION      0.00     0.08     0  08:00           0     0.00175       3.576
  WS02006242           JUNCTION      0.00     0.09     0  01:31           0     0.00194      10.953
  WS02006243           JUNCTION      0.00     0.08     0  07:59           0     0.00197       1.224
  WS02006245           JUNCTION      0.00     0.08     0  07:58           0     0.00202       2.778
  WS02006247           JUNCTION      0.00     0.08     0  07:59           0     0.00207       2.282
  WS02006248           JUNCTION      0.00     0.08     0  07:54           0     0.00208       0.717
  WS02006249           JUNCTION      0.00     0.09     0  00:08           0     0.00221       5.999
  WS02006251           JUNCTION      0.08     0.08     0  00:00     0.00222     0.00222       0.535
  WS02006252           JUNCTION      0.00     0.00     0  00:00           0           0       0.000 ltr
  WS02006256           JUNCTION      0.00     0.08     0  08:00           0     0.00162       0.378
  WSF200               JUNCTION      0.00    11.71     0  05:00           0       0.172       0.251
  YS02001580           JUNCTION      0.00    49.65     0  01:34           0     0.00411      -0.106
  YS02001583           JUNCTION      0.00    76.93     0  01:33           0       0.016      -2.744
  YS02001586           JUNCTION   3686.17  3686.17     0  02:25        6.01        6.03       0.013
  YS02001590           JUNCTION      0.00   317.88     0  01:55           0        2.19      -0.047
  YS02001593           JUNCTION      0.00   317.86     0  02:03           0        2.19       0.005
  YS02001596           JUNCTION      0.00   317.72     0  01:53           0        2.19      -0.002
  YS02001600           JUNCTION      0.00   317.77     0  02:03           0        2.19       0.016
  YS02001601           JUNCTION   5478.46  5795.97     0  02:25        7.73        9.92       0.008
  YS02001602           JUNCTION      0.00   512.43     0  03:02           0        3.26       0.013
  YS02001605           JUNCTION      0.00   512.50     0  03:02           0        3.01       0.016
  YS02001607           JUNCTION      0.00   512.56     0  03:02           0        3.01       0.059
  YS02001610           JUNCTION      0.00   953.19     0  02:17           0        4.45       0.053
  YS02001613           JUNCTION      0.00   617.09     0  02:16           0        3.25       0.049
  YS02001616           JUNCTION      0.00   616.86     0  02:16           0        3.26       0.008
  YS02001619           JUNCTION   6323.56  6323.56     0  02:25        9.54        11.4      -0.002
  YS02001622           JUNCTION      0.00  1053.49     0  02:16           0        6.81      -0.004
  YS02001625           JUNCTION      0.00  1505.12     0  02:17           0        7.79       0.117
  YS02001629           JUNCTION      0.00  1138.20     0  02:30           0        5.64       0.011
  YS02001633           JUNCTION   4084.03  4084.03     0  02:25        5.83        9.71       0.034
  YS02001641           JUNCTION      0.00  1368.07     0  01:48           0        7.16       0.038
  YS02001644           JUNCTION   3606.92  5358.57     0  02:25        4.94        12.8       0.023
  YS02001647           JUNCTION      0.00  1724.63     0  01:48           0        8.39       0.001
  YS02001649           JUNCTION      0.00  2579.24     0  02:25           0        12.2       0.003
  YS02001652           JUNCTION      0.00  2428.58     0  02:27           0        4.52      -0.037
  YS02001655           JUNCTION      0.15  2731.44     0  02:26     0.00443        4.63       0.011
  YS02001658           JUNCTION      0.00  2783.08     0  02:26           0        4.64      -0.008
  YS02001661           JUNCTION      0.00  2783.08     0  02:26           0        4.64       0.009
  YS02001664           JUNCTION   3439.42  3439.42     0  02:25        4.74        4.74      -0.005
  YS02001745           JUNCTION   2062.90  2062.90     0  02:24         2.7         2.7       0.016
  YS02001748           JUNCTION      0.04  2064.28     0  02:24      0.0013         2.7      -0.026
  YS02001751           JUNCTION      0.01  2066.04     0  02:24    0.000317         2.7       0.023
  YS02001754           JUNCTION      0.26  2067.86     0  02:24     0.00749        2.71      -0.049
  YS02001757           JUNCTION      0.00  3631.94     0  02:25           0        19.3      -0.002
  YS02001759           JUNCTION   2864.37  2864.37     0  02:24        3.87        6.33      -0.007
  YS02001762           JUNCTION      0.00   774.60     0  02:38           0        2.86      -0.004
  YS02001765           JUNCTION      0.00   774.07     0  02:38           0        2.86      -0.004
  YS02001767           JUNCTION      0.54   773.99     0  02:38      0.0154        2.86      -0.009
  YS02001770           JUNCTION   4197.89  4918.37     0  02:25         5.7        6.13      -0.013
  YS02001774           JUNCTION      0.00   851.50     0  02:29           0        1.39       0.061
  YS02001779           JUNCTION      0.01   851.26     0  02:29    0.000144        1.35      -0.012
  YS02001783           JUNCTION      0.00  1150.55     0  01:40           0        3.12       0.008
  YS02001784           JUNCTION      1.06  1151.70     0  01:39      0.0305        3.15       0.015
  YS02001786           JUNCTION      0.06  1151.80     0  01:39     0.00162        3.15       0.019
  YS02001788           JUNCTION      0.07  1154.40     0  01:39     0.00204        3.15       0.009
  YS02001790           JUNCTION      0.15  1163.12     0  01:40     0.00446        3.15       0.037
  YS02001791           JUNCTION      0.00  1262.77     0  01:43           0        3.15      -0.019
  YS02001793           JUNCTION      0.00  1232.03     0  01:40           0        3.15       0.004
  YS02001882           JUNCTION      0.00    89.21     0  01:37           0      0.0124       5.081
  YS02001884           JUNCTION      0.00   144.56     0  01:37           0      0.0477       5.381
  YS02001887           JUNCTION    519.39   540.54     0  01:37       0.784       0.817       0.555
  YS02001890           JUNCTION      0.00   542.56     0  01:37           0       0.777       0.656
  YS02001895           JUNCTION      0.00   549.78     0  01:37           0        0.77       0.203
  YS02001898           JUNCTION      0.00   536.63     0  01:38           0       0.768       0.003
  YS02001901           JUNCTION      0.00   540.66     0  01:38           0       0.771       0.423
  YS02001904           JUNCTION      0.00   541.90     0  01:38           0       0.778       0.355
  YS02001907           JUNCTION      0.00  1457.36     0  01:40           0        2.35       0.760
  YS02001910           JUNCTION      0.00   976.49     0  01:40           0        1.58       0.458
  YS02001915           JUNCTION    526.94   976.22     0  01:40        0.96        1.64       0.086
  YS02001918           JUNCTION      0.00   575.06     0  01:38           0       0.708       0.011
  YS02001920           JUNCTION      2.87   529.42     0  01:38      0.0827       0.682       0.139
  YS02001923           JUNCTION      0.04   651.08     0  01:38     0.00109       0.581      -0.102
  YS02001926           JUNCTION      0.05   921.69     0  01:38      0.0015       0.561      -0.004
  YS02001929           JUNCTION    265.71   749.66     0  01:39       0.541       0.546      -0.071
  YS02006553           JUNCTION      0.00   785.34     0  01:52           0        2.08       0.564
  YS02006556           JUNCTION      0.00   785.15     0  01:52           0         2.1       0.391
  YS02006558           JUNCTION    644.48  1172.28     0  01:38        1.09        3.15       0.114
  YS02006561           JUNCTION      0.00  1171.36     0  01:38           0        3.12      -0.003
  YS02163301           JUNCTION      0.00  1138.20     0  02:30           0        5.65       0.028
  YS02163601           JUNCTION      0.11  1360.49     0  01:48     0.00317        7.15       0.070
  YS02164001           JUNCTION      0.00  1360.33     0  01:48           0        7.15       0.031
  CC-1                 OUTFALL       0.00 16161.72     0  00:00           0        10.6       0.000
  CC-2                 OUTFALL       0.00 17045.67     0  00:00           0          11       0.000
  JK-1                 OUTFALL       0.00  8590.66     0  00:00           0        1.69       0.000
  JK-2                 OUTFALL       0.00  8788.77     0  00:00           0        1.72       0.000
  WSC                  OUTFALL       0.00    30.38     0  07:46           0       0.693       0.000
  CC-storage           STORAGE       0.00  3488.39     0  02:24           0        21.6      -0.279
  JK-storage           STORAGE       0.00  1260.70     0  01:40           0        3.31      -3.044
  
  
  **********************
  Node Surcharge Summary
  **********************
  
  Surcharging occurs when water rises above the top of the highest conduit.
  ---------------------------------------------------------------------
                                               Max. Height   Min. Depth
                                   Hours       Above Crown    Below Rim
  Node                 Type      Surcharged         Meters       Meters
  ---------------------------------------------------------------------
  YS02001580           JUNCTION        1.43          0.450        0.000
  YS02001583           JUNCTION        1.44          0.319        0.181
  YS02001586           JUNCTION        1.55          0.510        0.000
  YS02001590           JUNCTION        1.64          0.747        0.003
  YS02001593           JUNCTION        1.63          0.710        0.130
  YS02001596           JUNCTION        1.75          0.950        0.120
  YS02001600           JUNCTION        1.86          1.190        0.000
  YS02001601           JUNCTION        2.09          1.440        0.000
  YS02001602           JUNCTION        2.02          1.270        0.000
  YS02001605           JUNCTION        1.98          1.180        0.000
  YS02001607           JUNCTION        1.56          0.670        0.010
  YS02001610           JUNCTION        1.59          0.680        0.000
  YS02001613           JUNCTION        1.55          0.700        0.000
  YS02001616           JUNCTION        1.51          0.610        0.000
  YS02001619           JUNCTION        1.50          0.610        0.000
  YS02001622           JUNCTION        1.49          0.620        0.000
  YS02001625           JUNCTION        1.67          0.780        0.000
  YS02001629           JUNCTION        1.36          0.470        0.000
  YS02001633           JUNCTION        1.68          1.060        0.000
  YS02001641           JUNCTION        1.57          0.967        0.133
  YS02001644           JUNCTION        1.50          0.920        0.000
  YS02001647           JUNCTION        1.09          0.793        0.107
  YS02001649           JUNCTION        1.13          1.050        0.000
  YS02001652           JUNCTION        0.97          1.119        0.011
  YS02001655           JUNCTION        0.85          1.200        0.000
  YS02001658           JUNCTION        0.69          1.300        0.000
  YS02001661           JUNCTION        0.42          1.390        0.000
  YS02001664           JUNCTION        0.25          1.310        0.000
  YS02001745           JUNCTION        0.22          0.975        0.375
  YS02001748           JUNCTION        0.54          1.066        0.124
  YS02001751           JUNCTION        0.73          1.095        0.105
  YS02001754           JUNCTION        0.86          1.075        0.075
  YS02001757           JUNCTION        1.09          1.202        0.008
  YS02001759           JUNCTION        1.03          1.210        0.000
  YS02001762           JUNCTION        1.01          1.150        0.000
  YS02001765           JUNCTION        0.99          1.084        0.016
  YS02001767           JUNCTION        0.98          1.030        0.000
  YS02001770           JUNCTION        0.97          0.920        0.000
  YS02001774           JUNCTION        1.02          1.010        0.040
  YS02001779           JUNCTION        0.89          0.680        0.000
  YS02001783           JUNCTION        0.36          0.777        0.823
  YS02001784           JUNCTION        0.34          0.501        0.989
  YS02001786           JUNCTION        0.25          0.197        1.233
  YS02001882           JUNCTION        0.32          0.830        0.000
  YS02001884           JUNCTION        0.33          0.870        0.000
  YS02001887           JUNCTION        0.36          0.858        0.092
  YS02001890           JUNCTION        0.37          0.760        0.000
  YS02001895           JUNCTION        0.31          0.750        0.000
  YS02001898           JUNCTION        0.30          0.740        0.000
  YS02001901           JUNCTION        0.34          0.870        0.000
  YS02001904           JUNCTION        0.34          0.704        0.146
  YS02001907           JUNCTION        0.52          0.950        0.000
  YS02001910           JUNCTION        0.39          1.069        0.031
  YS02001915           JUNCTION        0.31          1.000        0.000
  YS02001918           JUNCTION        0.24          0.810        0.000
  YS02001920           JUNCTION        0.25          1.108        0.032
  YS02001923           JUNCTION        0.01          0.820        0.000
  YS02001926           JUNCTION        0.01          0.900        0.000
  YS02001929           JUNCTION        0.01          0.780        0.000
  YS02006553           JUNCTION        0.54          1.060        0.130
  YS02006556           JUNCTION        0.46          1.095        0.255
  YS02006558           JUNCTION        0.45          1.097        0.303
  YS02006561           JUNCTION        0.20          0.570        0.580
  YS02163301           JUNCTION        1.66          0.963        0.067
  YS02163601           JUNCTION        1.70          1.077        0.003
  YS02164001           JUNCTION        1.58          0.974        0.126
  
  
  *********************
  Node Flooding Summary
  *********************
  
  Flooding refers to all water that overflows a node, whether it ponds or not.
  --------------------------------------------------------------------------
                                                             Total   Maximum
                                 Maximum   Time of Max       Flood    Ponded
                        Hours       Rate    Occurrence      Volume     Depth
  Node                 Flooded       LPS   days hr:min    10^6 ltr    Meters
  --------------------------------------------------------------------------
  YS02001580              0.01     20.27      0  01:34       0.000     0.000
  YS02001586              1.28   3368.42      0  02:25       3.819     0.000
  YS02001600              0.01      0.71      0  01:34       0.000     0.000
  YS02001601              1.48   5397.97      0  02:25       6.660     0.000
  YS02001602              1.16     61.90      0  01:51       0.248     0.000
  YS02001605              0.01      0.11      0  01:55       0.000     0.000
  YS02001610              1.10    953.00      0  02:16       2.643     0.000
  YS02001613              0.01      0.22      0  01:55       0.000     0.000
  YS02001616              0.01      0.52      0  02:17       0.000     0.000
  YS02001619              0.48   4653.62      0  02:25       3.100     0.000
  YS02001622              0.01      0.14      0  01:48       0.000     0.000
  YS02001625              0.99   1505.04      0  02:17       3.904     0.000
  YS02001629              0.51    686.41      0  02:23       0.781     0.000
  YS02001633              0.24   2040.81      0  02:25       0.791     0.000
  YS02001644              0.65   5358.48      0  02:25       5.120     0.000
  YS02001649              0.22   1732.48      0  02:25       0.715     0.000
  YS02001655              0.12    302.86      0  02:26       0.105     0.000
  YS02001658              0.08     51.80      0  02:26       0.014     0.000
  YS02001661              0.01      0.35      0  02:19       0.000     0.000
  YS02001664              0.08    656.29      0  02:25       0.106     0.000
  YS02001759              0.08    619.73      0  02:24       0.094     0.000
  YS02001762              0.01      0.38      0  02:21       0.000     0.000
  YS02001767              0.01      0.63      0  02:04       0.000     0.000
  YS02001770              0.33   4067.15      0  02:25       2.311     0.000
  YS02001779              0.59    851.20      0  02:29       1.326     0.000
  YS02001882              0.01     32.49      0  01:37       0.000     0.000
  YS02001884              0.01     28.97      0  01:37       0.000     0.000
  YS02001890              0.01    175.28      0  01:37       0.002     0.000
  YS02001895              0.01    204.61      0  01:37       0.000     0.000
  YS02001898              0.01    153.86      0  01:37       0.000     0.000
  YS02001901              0.01     18.87      0  01:37       0.000     0.000
  YS02001907              0.18    939.94      0  01:40       0.260     0.000
  YS02001915              0.01    224.99      0  01:37       0.000     0.000
  YS02001918              0.01    152.74      0  01:39       0.002     0.000
  YS02001923              0.01    165.71      0  01:39       0.000     0.000
  YS02001926              0.01    704.68      0  01:39       0.002     0.000
  YS02001929              0.01    446.32      0  01:39       0.002     0.000
  
  
  **********************
  Storage Volume Summary
  **********************
  
  --------------------------------------------------------------------------------------------------
                         Average     Avg  Evap Exfil       Maximum     Max    Time of Max    Maximum
                          Volume    Pcnt  Pcnt  Pcnt        Volume    Pcnt     Occurrence    Outflow
  Storage Unit           1000 m3    Full  Loss  Loss       1000 m3    Full    days hr:min        LPS
  --------------------------------------------------------------------------------------------------
  CC-storage               0.327       5     0     0         2.229      35       0  00:00   32996.09
  JK-storage               0.004       1     0     0         0.151      52       0  00:00   17379.43
  
  
  ***********************
  Outfall Loading Summary
  ***********************
  
  -----------------------------------------------------------
                         Flow       Avg       Max       Total
                         Freq      Flow      Flow      Volume
  Outfall Node           Pcnt       LPS       LPS    10^6 ltr
  -----------------------------------------------------------
  CC-1                 100.00    811.24  16161.72      10.584
  CC-2                 100.00    843.98  17045.67      11.008
  JK-1                 100.00    129.64   8590.66       1.689
  JK-2                 100.00    131.93   8788.77       1.719
  WSC                   99.98     20.82     30.38       0.693
  -----------------------------------------------------------
  System               100.00   1937.61     30.38      25.693
  
  
  ********************
  Link Flow Summary
  ********************
  
  -----------------------------------------------------------------------------
                                 Maximum  Time of Max   Maximum    Max/    Max/
                                  |Flow|   Occurrence   |Veloc|    Full    Full
  Link                 Type          LPS  days hr:min     m/sec    Flow   Depth
  -----------------------------------------------------------------------------
  1                    CONDUIT     30.38     0  07:46      1.19    0.01    0.07
  WS02003060WS02003069 CONDUIT     28.24     0  06:06      0.77    0.01    0.08
  WS02003066WSF200     CONDUIT     11.71     0  05:00      0.93    0.00    0.04
  WS02003067WS02003066 CONDUIT     11.71     0  04:46      0.09    0.00    0.18
  WS02003069WS02003072 CONDUIT     28.56     0  06:55      0.62    0.01    0.10
  WS02003072WS02003073 CONDUIT     28.56     0  06:57      0.50    0.06    0.10
  WS02004401WS02004402 CONDUIT     11.54     0  04:12      0.35    0.01    0.38
  WS02004402WS02004403 CONDUIT     11.64     0  01:16      0.40    0.02    0.42
  WS02004403WS02004404 CONDUIT     11.60     0  04:01      0.36    0.01    0.47
  WS02004404WS02004405 CONDUIT     11.77     0  04:05      0.28    0.12    0.51
  WS02004405WS02004406 CONDUIT     11.74     0  04:20      0.22    0.02    0.52
  WS02004406WS02004407 CONDUIT     11.71     0  04:53      0.06    0.01    0.29
  WS02004407WS02004409 CONDUIT     11.71     0  05:14      0.52    0.00    0.08
  WS02004409WS02004410 CONDUIT     11.71     0  04:42      0.34    0.02    0.14
  WS02004410WS02004411 CONDUIT     11.74     0  04:18      0.33    0.02    0.18
  WS02004411WS02004412 CONDUIT     11.84     0  04:09      0.36    0.02    0.22
  WS02004412WS02004413 CONDUIT     12.01     0  04:07      0.30    0.01    0.33
  WS02004413WS02003067 CONDUIT     11.71     0  04:49      0.08    0.01    0.23
  WS02006109WS02006110 CONDUIT     11.51     0  03:02      0.21    0.02    0.38
  WS02006110WS02006113 CONDUIT     11.51     0  03:42      0.10    0.01    0.28
  WS02006111WS02006112 CONDUIT     11.51     0  04:26      0.66    0.01    0.31
  WS02006112WS02006115 CONDUIT     11.82     0  01:53      0.10    0.01    0.35
  WS02006113WS02006111 CONDUIT     11.51     0  04:52      0.67    0.01    0.07
  WS02006115WS02006116 CONDUIT     12.06     0  01:53      0.45    0.02    0.24
  WS02006116WS02004401 CONDUIT     11.54     0  01:26      0.35    0.02    0.34
  WS02006228WS02006109 CONDUIT     10.28     0  02:21      0.28    0.04    0.40
  WS02006229WS02006228 CONDUIT     10.28     0  01:59      0.40    0.03    0.35
  WS02006230WS02006229 CONDUIT     10.54     0  00:16      0.36    0.23    0.31
  WS02006231WS02006230 CONDUIT      0.00     0  00:00      0.00    0.00    0.00
  WS02006232WS02006231 CONDUIT      0.00     0  00:00      0.00    0.00    0.00
  WS02006234WS02006232 CONDUIT      0.00     0  00:00      0.00    0.00    0.00
  WS02006235WS02006234 CONDUIT      0.00     0  00:00      0.00    0.00    0.00
  WS02006238WS02006235 CONDUIT      0.08     0  08:00      0.03    0.00    0.03
  WS02006239WS02006238 CONDUIT      0.08     0  08:00      0.09    0.00    0.01
  WS02006240WS02006239 CONDUIT      0.08     0  08:00      0.09    0.00    0.01
  WS02006242WS02006240 CONDUIT      0.08     0  08:00      0.02    0.00    0.03
  WS02006243WS02006242 CONDUIT      0.09     0  01:31      0.12    0.00    0.01
  WS02006245WS02006243 CONDUIT      0.08     0  07:59      0.10    0.00    0.01
  WS02006247WS02006245 CONDUIT      0.08     0  07:58      0.07    0.00    0.01
  WS02006248WS02006247 CONDUIT      0.08     0  07:59      0.11    0.00    0.01
  WS02006249WS02006248 CONDUIT      0.08     0  07:54      0.06    0.00    0.02
  WS02006251WS02006249 CONDUIT      0.09     0  00:08      0.10    0.00    0.02
  WS02006252WS02006251 CONDUIT      0.00     0  00:00      0.00    0.00    0.00
  WS02006256WS02006235 CONDUIT      0.08     0  08:00      0.35    0.00    0.01
  WSF200WS02003060     CONDUIT     11.71     0  05:14      0.47    0.00    0.06
  YS02001580YS02001583 CONDUIT     49.65     0  01:34      0.42    0.19    1.00
  YS02001583YS02001586 CONDUIT     76.93     0  01:33      0.35    0.12    1.00
  YS02001586YS02001590 CONDUIT    317.88     0  01:55      1.29    0.56    1.00
  YS02001590YS02001593 CONDUIT    317.86     0  02:03      1.17    2.00    1.00
  YS02001593YS02001596 CONDUIT    317.72     0  01:53      1.86    0.50    1.00
  YS02001596YS02001600 CONDUIT    317.77     0  02:03      1.34    0.62    1.00
  YS02001600YS02001601 CONDUIT    317.76     0  02:03      1.12    0.55    1.00
  YS02001601YS02001602 CONDUIT    512.43     0  03:02      1.81    1.85    1.00
  YS02001602YS02001605 CONDUIT    512.50     0  03:02      1.81   10.85    1.00
  YS02001605YS02001607 CONDUIT    512.56     0  03:02      1.81    2.81    1.00
  YS02001607YS02001610 CONDUIT    513.23     0  03:02      0.65    0.49    1.00
  YS02001610YS02001613 CONDUIT    616.94     0  02:16      0.79    0.71    1.00
  YS02001613YS02001616 CONDUIT    617.09     0  02:16      0.79    0.53    1.00
  YS02001616YS02001619 CONDUIT    616.86     0  02:16      0.79    1.07    1.00
  YS02001619YS02001622 CONDUIT   1053.49     0  02:16      1.35    1.55    1.00
  YS02001622YS02001625 CONDUIT   1053.40     0  02:17      1.34    0.56    1.00
  YS02001625YS02001629 CONDUIT   1007.18     0  02:55      1.28    0.48    1.00
  YS02001629YS02163301 CONDUIT   1138.20     0  02:30      1.45    1.40    1.00
  YS02001633YS02163601 CONDUIT   1360.38     0  01:48      1.73    1.43    1.00
  YS02001641YS02001644 CONDUIT   1373.25     0  01:48      1.75    4.44    1.00
  YS02001644YS02001647 CONDUIT   1724.63     0  01:48      2.20    1.01    1.00
  YS02001647YS02001649 CONDUIT   1717.17     0  01:48      2.26    0.91    1.00
  YS02001649YS02001757 CONDUIT   1994.03     0  01:48      2.54    1.21    1.00
  YS02001652YS02001649 CONDUIT   2428.58     0  02:27      3.09    1.20    1.00
  YS02001655YS02001652 CONDUIT   2428.58     0  02:27      3.09    1.18    1.00
  YS02001658YS02001655 CONDUIT   2731.29     0  02:26      3.48    1.16    1.00
  YS02001661YS02001658 CONDUIT   2783.08     0  02:26      3.54    1.09    1.00
  YS02001664YS02001661 CONDUIT   2783.08     0  02:26      3.54    0.87    1.00
  YS02001745YS02001748 CONDUIT   2064.23     0  02:24      2.63    0.79    1.00
  YS02001748YS02001751 CONDUIT   2066.03     0  02:24      2.63    1.04    1.00
  YS02001751YS02001754 CONDUIT   2067.60     0  02:24      2.63    1.00    1.00
  YS02001754YS02001757 CONDUIT   2068.84     0  02:24      2.63    0.83    1.00
  YS02001757CaochengTiaoxuchi CONDUIT   3488.39     0  02:24      7.02    1.51    0.60
  YS02001759YS02001757 CONDUIT   1677.85     0  02:26      2.14    1.19    1.00
  YS02001762YS02001759 CONDUIT    774.90     0  02:38      0.99    0.89    1.00
  YS02001765YS02001762 CONDUIT    774.60     0  02:38      0.99    0.73    1.00
  YS02001767YS02001765 CONDUIT    774.07     0  02:38      0.99    0.97    1.00
  YS02001770YS02001767 CONDUIT    773.45     0  02:38      0.98    3.06    1.00
  YS02001774YS02001770 CONDUIT    851.50     0  02:29      1.08    0.54    1.00
  YS02001779YS02001774 CONDUIT    851.25     0  02:29      1.08    0.43    1.00
  YS02001783YS02001784 CONDUIT   1150.64     0  01:39      2.29    1.59    1.00
  YS02001784YS02001785 CONDUIT   1151.74     0  01:39      2.29    2.68    1.00
  YS02001786YS02001788 CONDUIT   1154.33     0  01:39      2.49    2.22    0.89
  YS02001788YS02001790 CONDUIT   1162.96     0  01:40      2.70    0.86    0.83
  YS02001790YS02001791 CONDUIT   1262.77     0  01:43      3.40    1.37    0.70
  YS02001791YS02001793 CONDUIT   1232.03     0  01:40      6.70    0.53    0.41
  YS02001793JiankangQianchi CONDUIT   1260.70     0  01:40     10.68    0.10    0.50
  YS02001882YS02001884 CONDUIT     89.21     0  01:37      0.15    0.10    1.00
  YS02001884YS02001887 CONDUIT    144.56     0  01:37      0.18    0.19    1.00
  YS02001887YS02001890 CONDUIT    542.56     0  01:37      0.69    0.93    1.00
  YS02001890YS02001895 CONDUIT    549.78     0  01:37      0.70    0.26    1.00
  YS02001895YS02001898 CONDUIT    536.63     0  01:38      0.68    0.93    1.00
  YS02001898YS02001901 CONDUIT    540.66     0  01:38      0.69    0.35    1.00
  YS02001901YS02001904 CONDUIT    541.90     0  01:38      0.69    0.84    1.00
  YS02001904YS02001907 CONDUIT    544.30     0  01:38      0.69    0.19    1.00
  YS02001907YS02006553 CONDUIT    785.34     0  01:52      0.87    0.92    1.00
  YS02001910YS02001907 CONDUIT    976.71     0  01:40      1.24    0.55    1.00
  YS02001915YS02001910 CONDUIT    976.49     0  01:40      1.24    0.48    1.00
  YS02001918YS02001915 CONDUIT    575.06     0  01:38      0.78    0.32    1.00
  YS02001920YS02001918 CONDUIT    526.55     0  01:38      0.69    0.51    1.00
  YS02001923YS02001920 CONDUIT    535.54     0  01:38      0.86    0.24    1.00
  YS02001926YS02001923 CONDUIT    702.56     0  01:38      1.13    1.00    1.00
  YS02001929YS02001926 CONDUIT    502.55     0  01:39      1.19    0.24    1.00
  YS02006553YS02006556 CONDUIT    785.15     0  01:52      1.00    0.67    1.00
  YS02006556YS02006558 CONDUIT    785.79     0  01:51      1.00    0.62    1.00
  YS02006558YS02006561 CONDUIT   1171.36     0  01:38      4.14    2.59    1.00
  YS02006561YS02001783 CONDUIT   1150.55     0  01:40      2.29    0.60    1.00
  YS02163301YS02001633 CONDUIT   1138.20     0  02:30      1.45    1.07    1.00
  YS02163601YS02164001 CONDUIT   1360.33     0  01:48      1.73    1.21    1.00
  YS02164001YS02001641 CONDUIT   1368.07     0  01:48      1.74    1.87    1.00
  2                    CONDUIT  16161.72     0  00:00     26.41    0.88    0.73
  3                    CONDUIT  17045.67     0  00:00     27.65    0.89    0.73
  4                    CONDUIT      0.00     0  00:00      0.00    0.00    0.40
  5                    CONDUIT   8590.66     0  00:00     10.94    1.24    1.00
  6                    CONDUIT   8788.77     0  00:00     11.19    1.25    1.00
  7                    CONDUIT      0.08     0  08:00      0.06    0.00    0.50
  
  
  ***************************
  Flow Classification Summary
  ***************************
  
  -------------------------------------------------------------------------------------
                      Adjusted    ---------- Fraction of Time in Flow Class ---------- 
                       /Actual         Up    Down  Sub   Sup   Up    Down  Norm  Inlet 
  Conduit               Length    Dry  Dry   Dry   Crit  Crit  Crit  Crit  Ltd   Ctrl  
  -------------------------------------------------------------------------------------
  1                       1.00   0.00  0.00  0.00  0.00  1.00  0.00  0.00  0.92  0.00
  WS02003060WS02003069    1.00   0.00  0.00  0.00  0.98  0.02  0.00  0.00  0.99  0.00
  WS02003066WSF200        1.00   0.73  0.00  0.00  0.00  0.27  0.00  0.00  0.51  0.00
  WS02003067WS02003066    1.00   0.70  0.03  0.00  0.27  0.00  0.00  0.00  0.00  0.00
  WS02003069WS02003072    1.00   0.00  0.00  0.00  0.99  0.01  0.00  0.00  0.99  0.00
  WS02003072WS02003073    1.00   0.00  0.00  0.00  0.00  0.00  0.00  1.00  0.00  0.00
  WS02004401WS02004402    1.00   0.09  0.00  0.00  0.91  0.00  0.00  0.00  0.04  0.00
  WS02004402WS02004403    1.00   0.10  0.00  0.00  0.90  0.00  0.00  0.00  0.00  0.00
  WS02004403WS02004404    1.00   0.00  0.10  0.00  0.90  0.00  0.00  0.00  0.04  0.00
  WS02004404WS02004405    1.00   0.00  0.00  0.00  1.00  0.00  0.00  0.00  0.00  0.00
  WS02004405WS02004406    1.00   0.00  0.00  0.00  1.00  0.00  0.00  0.00  0.04  0.00
  WS02004406WS02004407    1.00   0.00  0.50  0.00  0.50  0.00  0.00  0.00  0.00  0.00
  WS02004407WS02004409    1.00   0.50  0.00  0.00  0.48  0.02  0.00  0.00  0.65  0.00
  WS02004409WS02004410    1.00   0.50  0.00  0.00  0.50  0.00  0.00  0.00  0.04  0.00
  WS02004410WS02004411    1.00   0.51  0.00  0.00  0.49  0.00  0.00  0.00  0.04  0.00
  WS02004411WS02004412    1.00   0.51  0.00  0.00  0.49  0.00  0.00  0.00  0.00  0.00
  WS02004412WS02004413    1.00   0.52  0.00  0.00  0.48  0.00  0.00  0.00  0.05  0.00
  WS02004413WS02003067    1.00   0.53  0.17  0.00  0.00  0.00  0.30  0.00  0.00  0.00
  WS02006109WS02006110    1.00   0.00  0.03  0.00  0.96  0.00  0.02  0.00  0.00  0.00
  WS02006110WS02006113    1.00   0.03  0.04  0.00  0.93  0.00  0.00  0.00  0.00  0.00
  WS02006111WS02006112    1.00   0.07  0.00  0.00  0.92  0.00  0.00  0.00  0.92  0.00
  WS02006112WS02006115    1.00   0.07  0.02  0.00  0.90  0.00  0.00  0.00  0.00  0.00
  WS02006113WS02006111    1.00   0.07  0.00  0.00  0.02  0.91  0.00  0.00  0.00  0.00
  WS02006115WS02006116    1.00   0.09  0.00  0.00  0.78  0.00  0.00  0.13  0.01  0.00
  WS02006116WS02004401    1.00   0.09  0.00  0.00  0.91  0.00  0.00  0.00  0.01  0.00
  WS02006228WS02006109    1.00   0.00  0.00  0.00  0.99  0.00  0.00  0.00  0.00  0.00
  WS02006229WS02006228    1.00   0.00  0.00  0.00  0.98  0.00  0.00  0.02  0.00  0.00
  WS02006230WS02006229    1.00   0.00  0.00  0.00  0.95  0.00  0.00  0.05  0.00  0.00
  WS02006231WS02006230    1.00   1.00  0.00  0.00  0.00  0.00  0.00  0.00  0.00  0.00
  WS02006232WS02006231    1.00   1.00  0.00  0.00  0.00  0.00  0.00  0.00  0.00  0.00
  WS02006234WS02006232    1.00   1.00  0.00  0.00  0.00  0.00  0.00  0.00  0.00  0.00
  WS02006235WS02006234    1.00   1.00  0.00  0.00  0.00  0.00  0.00  0.00  0.00  0.00
  WS02006238WS02006235    1.00   0.18  0.09  0.00  0.73  0.00  0.00  0.00  0.00  0.00
  WS02006239WS02006238    1.00   0.17  0.00  0.00  0.73  0.00  0.00  0.11  0.73  0.00
  WS02006240WS02006239    1.00   0.16  0.00  0.00  0.00  0.00  0.00  0.84  0.00  0.00
  WS02006242WS02006240    1.00   0.06  0.10  0.00  0.77  0.00  0.07  0.00  0.00  0.00
  WS02006243WS02006242    1.00   0.06  0.00  0.00  0.86  0.00  0.00  0.09  0.78  0.00
  WS02006245WS02006243    1.00   0.05  0.00  0.00  0.01  0.00  0.00  0.94  0.00  0.00
  WS02006247WS02006245    1.00   0.04  0.00  0.00  0.90  0.00  0.00  0.06  0.00  0.00
  WS02006248WS02006247    1.00   0.04  0.00  0.00  0.92  0.00  0.00  0.04  0.02  0.00
  WS02006249WS02006248    1.00   0.00  0.03  0.00  0.00  0.00  0.96  0.00  0.00  0.00
  WS02006251WS02006249    1.00   0.00  0.00  0.00  1.00  0.00  0.00  0.00  0.98  0.00
  WS02006252WS02006251    1.00   1.00  0.00  0.00  0.00  0.00  0.00  0.00  0.00  0.00
  WS02006256WS02006235    1.00   0.27  0.00  0.00  0.01  0.72  0.00  0.00  0.00  0.00
  WSF200WS02003060        1.00   0.00  0.73  0.00  0.27  0.00  0.00  0.00  0.52  0.00
  YS02001580YS02001583    1.00   0.16  0.26  0.00  0.58  0.00  0.00  0.00  0.61  0.00
  YS02001583YS02001586    1.00   0.23  0.15  0.00  0.62  0.00  0.00  0.00  0.61  0.00
  YS02001586YS02001590    1.00   0.10  0.00  0.00  0.73  0.02  0.00  0.15  0.29  0.00
  YS02001590YS02001593    1.00   0.10  0.00  0.00  0.48  0.00  0.42  0.00  0.00  0.00
  YS02001593YS02001596    1.00   0.10  0.00  0.00  0.50  0.01  0.00  0.39  0.01  0.00
  YS02001596YS02001600    1.00   0.10  0.00  0.00  0.55  0.01  0.00  0.33  0.02  0.00
  YS02001600YS02001601    1.00   0.10  0.00  0.00  0.90  0.00  0.00  0.00  0.55  0.00
  YS02001601YS02001602    1.00   0.10  0.00  0.00  0.90  0.00  0.00  0.00  0.00  0.00
  YS02001602YS02001605    1.00   0.10  0.00  0.00  0.90  0.00  0.00  0.00  0.00  0.00
  YS02001605YS02001607    1.00   0.10  0.00  0.00  0.90  0.00  0.00  0.00  0.00  0.00
  YS02001607YS02001610    1.00   0.10  0.00  0.00  0.90  0.00  0.00  0.00  0.00  0.00
  YS02001610YS02001613    1.00   0.10  0.00  0.00  0.90  0.00  0.00  0.00  0.00  0.00
  YS02001613YS02001616    1.00   0.10  0.00  0.00  0.90  0.00  0.00  0.00  0.00  0.00
  YS02001616YS02001619    1.00   0.10  0.00  0.00  0.90  0.00  0.00  0.00  0.00  0.00
  YS02001619YS02001622    1.00   0.10  0.00  0.00  0.90  0.00  0.00  0.00  0.30  0.00
  YS02001622YS02001625    1.00   0.10  0.00  0.00  0.90  0.00  0.00  0.00  0.01  0.00
  YS02001625YS02001629    1.00   0.10  0.01  0.00  0.52  0.00  0.37  0.00  0.00  0.00
  YS02001629YS02163301    1.00   0.10  0.00  0.00  0.89  0.00  0.00  0.00  0.00  0.00
  YS02001633YS02163601    1.00   0.00  0.02  0.00  0.98  0.00  0.00  0.00  0.13  0.00
  YS02001641YS02001644    1.00   0.00  0.02  0.00  0.98  0.00  0.00  0.00  0.00  0.00
  YS02001644YS02001647    1.00   0.00  0.11  0.00  0.89  0.00  0.00  0.00  0.00  0.00
  YS02001647YS02001649    1.00   0.00  0.10  0.00  0.64  0.25  0.00  0.00  0.54  0.00
  YS02001649YS02001757    1.00   0.00  0.00  0.00  0.79  0.20  0.00  0.00  0.76  0.00
  YS02001652YS02001649    1.00   0.00  0.00  0.00  0.99  0.01  0.00  0.00  0.69  0.00
  YS02001655YS02001652    1.00   0.00  0.00  0.00  0.55  0.01  0.00  0.44  0.07  0.00
  YS02001658YS02001655    1.00   0.00  0.10  0.00  0.67  0.22  0.00  0.00  0.66  0.00
  YS02001661YS02001658    1.00   0.10  0.00  0.00  0.49  0.41  0.00  0.00  0.65  0.00
  YS02001664YS02001661    1.00   0.10  0.00  0.00  0.63  0.27  0.00  0.00  0.80  0.00
  YS02001745YS02001748    1.00   0.00  0.00  0.00  0.28  0.01  0.00  0.70  0.03  0.00
  YS02001748YS02001751    1.00   0.00  0.00  0.00  0.78  0.22  0.00  0.00  0.76  0.00
  YS02001751YS02001754    1.00   0.00  0.00  0.00  0.49  0.01  0.00  0.50  0.06  0.00
  YS02001754YS02001757    1.00   0.00  0.00  0.00  0.97  0.03  0.00  0.00  0.74  0.00
  YS02001757CaochengTiaoxuchi    1.00   0.00  0.00  0.00  0.08  0.92  0.00  0.00  0.10  0.00
  YS02001759YS02001757    1.00   0.00  0.00  0.00  1.00  0.00  0.00  0.00  0.55  0.00
  YS02001762YS02001759    1.00   0.00  0.00  0.00  1.00  0.00  0.00  0.00  0.04  0.00
  YS02001765YS02001762    1.00   0.00  0.00  0.00  1.00  0.00  0.00  0.00  0.67  0.00
  YS02001767YS02001765    1.00   0.00  0.00  0.00  1.00  0.00  0.00  0.00  0.00  0.00
  YS02001770YS02001767    1.00   0.00  0.00  0.00  1.00  0.00  0.00  0.00  0.00  0.00
  YS02001774YS02001770    1.00   0.01  0.10  0.00  0.81  0.00  0.09  0.00  0.01  0.00
  YS02001779YS02001774    1.00   0.00  0.00  0.00  1.00  0.00  0.00  0.00  0.73  0.00
  YS02001783YS02001784    1.00   0.00  0.14  0.00  0.86  0.00  0.00  0.00  0.58  0.00
  YS02001784YS02001785    1.00   0.00  0.00  0.00  1.00  0.00  0.00  0.00  0.16  0.00
  YS02001786YS02001788    1.00   0.00  0.00  0.00  0.56  0.44  0.00  0.00  0.00  0.00
  YS02001788YS02001790    1.00   0.00  0.00  0.00  0.17  0.83  0.00  0.00  0.85  0.00
  YS02001790YS02001791    1.00   0.00  0.00  0.00  0.03  0.97  0.00  0.00  0.16  0.00
  YS02001791YS02001793    1.00   0.00  0.00  0.00  0.00  1.00  0.00  0.00  0.00  0.00
  YS02001793JiankangQianchi    1.00   0.00  0.00  0.00  0.02  0.98  0.00  0.00  0.03  0.00
  YS02001882YS02001884    1.00   0.11  0.01  0.00  0.88  0.00  0.00  0.00  0.00  0.00
  YS02001884YS02001887    1.00   0.07  0.03  0.00  0.90  0.00  0.00  0.00  0.00  0.00
  YS02001887YS02001890    1.00   0.00  0.01  0.00  0.95  0.00  0.04  0.00  0.00  0.00
  YS02001890YS02001895    1.00   0.01  0.11  0.00  0.88  0.00  0.00  0.00  0.00  0.00
  YS02001895YS02001898    1.00   0.12  0.00  0.00  0.85  0.00  0.02  0.00  0.00  0.00
  YS02001898YS02001901    1.00   0.13  0.00  0.00  0.87  0.00  0.00  0.00  0.01  0.00
  YS02001901YS02001904    1.00   0.12  0.00  0.00  0.88  0.00  0.00  0.00  0.00  0.00
  YS02001904YS02001907    1.00   0.01  0.12  0.00  0.88  0.00  0.00  0.00  0.00  0.00
  YS02001907YS02006553    1.00   0.01  0.03  0.00  0.96  0.00  0.00  0.00  0.00  0.00
  YS02001910YS02001907    1.00   0.00  0.00  0.00  0.95  0.00  0.00  0.04  0.12  0.00
  YS02001915YS02001910    1.00   0.00  0.00  0.00  0.98  0.02  0.00  0.00  0.15  0.00
  YS02001918YS02001915    1.00   0.00  0.02  0.00  0.96  0.02  0.00  0.00  0.78  0.00
  YS02001920YS02001918    1.00   0.00  0.02  0.00  0.98  0.00  0.00  0.00  0.00  0.00
  YS02001923YS02001920    1.00   0.00  0.00  0.00  1.00  0.00  0.00  0.00  0.95  0.00
  YS02001926YS02001923    1.00   0.00  0.08  0.00  0.09  0.00  0.84  0.00  0.00  0.00
  YS02001929YS02001926    1.00   0.00  0.10  0.00  0.90  0.00  0.00  0.00  0.84  0.00
  YS02006553YS02006556    1.00   0.03  0.00  0.00  0.97  0.00  0.00  0.00  0.03  0.00
  YS02006556YS02006558    1.00   0.00  0.01  0.00  0.99  0.00  0.00  0.00  0.00  0.00
  YS02006558YS02006561    1.00   0.14  0.00  0.00  0.08  0.78  0.00  0.00  0.18  0.00
  YS02006561YS02001783    1.00   0.14  0.00  0.00  0.14  0.72  0.00  0.00  0.72  0.00
  YS02163301YS02001633    1.00   0.00  0.10  0.00  0.90  0.00  0.00  0.00  0.00  0.00
  YS02163601YS02164001    1.00   0.00  0.08  0.00  0.92  0.00  0.00  0.00  0.00  0.00
  YS02164001YS02001641    1.00   0.02  0.06  0.00  0.92  0.00  0.00  0.00  0.05  0.00
  2                       1.00   0.00  0.00  0.00  0.00  1.00  0.00  0.00  0.12  0.00
  3                       1.00   0.00  0.00  0.00  0.00  1.00  0.00  0.00  0.08  0.00
  4                       1.00   0.00  1.00  0.00  0.00  0.00  0.00  0.00  0.00  0.00
  5                       1.00   0.00  0.00  0.00  0.00  1.00  0.00  0.00  0.50  0.00
  6                       1.00   0.00  0.00  0.00  0.00  1.00  0.00  0.00  0.50  0.00
  7                       1.00   0.00  0.28  0.00  0.72  0.00  0.00  0.00  0.76  0.00
  
  
  *************************
  Conduit Surcharge Summary
  *************************
  
  ----------------------------------------------------------------------------
                                                           Hours        Hours 
                         --------- Hours Full --------   Above Full   Capacity
  Conduit                Both Ends  Upstream  Dnstream   Normal Flow   Limited
  ----------------------------------------------------------------------------
  YS02001580YS02001583        1.43      1.43      1.48      0.01         0.01
  YS02001583YS02001586        1.44      1.44      1.55      0.01         0.01
  YS02001586YS02001590        1.56      1.56      1.64      0.01         0.01
  YS02001590YS02001593        1.63      1.63      1.66      1.64         0.01
  YS02001593YS02001596        1.64      1.64      1.75      0.01         0.01
  YS02001596YS02001600        1.80      1.80      1.86      0.01         0.01
  YS02001600YS02001601        1.91      1.91      2.09      0.01         0.01
  YS02001601YS02001602        2.02      2.02      2.12      1.89         0.01
  YS02001602YS02001605        1.98      1.98      2.02      2.69         0.01
  YS02001605YS02001607        1.95      1.98      1.95      2.07         1.95
  YS02001607YS02001610        1.56      1.56      1.59      0.01         0.01
  YS02001610YS02001613        1.55      1.55      1.59      0.01         0.01
  YS02001613YS02001616        1.51      1.51      1.55      0.01         0.01
  YS02001616YS02001619        1.50      1.50      1.51      0.48         0.49
  YS02001619YS02001622        1.49      1.50      1.49      1.66         1.49
  YS02001622YS02001625        1.49      1.49      1.67      0.01         0.01
  YS02001625YS02001629        1.36      1.36      1.67      0.01         0.01
  YS02001629YS02163301        1.65      1.65      1.66      0.86         0.57
  YS02001633YS02163601        1.68      1.68      1.70      0.77         0.77
  YS02001641YS02001644        1.50      1.57      1.50      2.11         1.50
  YS02001644YS02001647        1.09      1.09      1.50      0.01         0.01
  YS02001647YS02001649        1.09      1.09      1.13      0.01         0.01
  YS02001649YS02001757        1.09      1.13      1.09      0.78         0.49
  YS02001652YS02001649        0.98      0.98      1.13      0.17         0.17
  YS02001655YS02001652        0.85      0.85      0.97      0.16         0.16
  YS02001658YS02001655        0.69      0.69      0.85      0.12         0.12
  YS02001661YS02001658        0.42      0.42      0.69      0.10         0.10
  YS02001664YS02001661        0.25      0.25      0.48      0.01         0.01
  YS02001745YS02001748        0.22      0.22      0.54      0.01         0.01
  YS02001748YS02001751        0.63      0.63      0.73      0.03         0.03
  YS02001751YS02001754        0.73      0.73      0.86      0.01         0.01
  YS02001754YS02001757        0.89      0.89      1.09      0.01         0.01
  YS02001757CaochengTiaoxuchi        0.01      1.09      0.01      1.33         0.01
  YS02001759YS02001757        1.03      1.03      1.09      0.25         0.25
  YS02001762YS02001759        1.01      1.01      1.03      0.01         0.01
  YS02001765YS02001762        0.99      0.99      1.01      0.01         0.01
  YS02001767YS02001765        0.98      0.98      0.99      0.01         0.03
  YS02001770YS02001767        0.98      0.98      0.98      1.37         0.74
  YS02001774YS02001770        0.97      0.97      1.02      0.01         0.01
  YS02001779YS02001774        0.89      0.89      1.02      0.01         0.01
  YS02001783YS02001784        0.34      0.36      0.34      0.48         0.34
  YS02001784YS02001785        0.25      0.34      0.25      0.67         0.25
  YS02001786YS02001788        0.01      0.25      0.01      0.56         0.01
  YS02001790YS02001791        0.01      0.01      0.01      0.33         0.01
  YS02001882YS02001884        0.32      0.32      0.33      0.01         0.01
  YS02001884YS02001887        0.35      0.35      0.36      0.01         0.01
  YS02001887YS02001890        0.37      0.37      0.38      0.01         0.01
  YS02001890YS02001895        0.31      0.31      0.39      0.01         0.01
  YS02001895YS02001898        0.30      0.30      0.31      0.01         0.01
  YS02001898YS02001901        0.31      0.31      0.34      0.01         0.01
  YS02001901YS02001904        0.34      0.34      0.34      0.01         0.01
  YS02001904YS02001907        0.34      0.34      0.54      0.01         0.01
  YS02001907YS02006553        0.67      0.67      0.73      0.01         0.01
  YS02001910YS02001907        0.39      0.39      0.52      0.01         0.01
  YS02001915YS02001910        0.31      0.31      0.39      0.01         0.01
  YS02001918YS02001915        0.24      0.24      0.31      0.01         0.01
  YS02001920YS02001918        0.24      0.24      0.25      0.01         0.01
  YS02001923YS02001920        0.19      0.19      0.25      0.01         0.01
  YS02001926YS02001923        0.01      0.01      0.01      0.01         0.01
  YS02001929YS02001926        0.01      0.01      0.01      0.01         0.01
  YS02006553YS02006556        0.46      0.46      0.54      0.01         0.01
  YS02006556YS02006558        0.50      0.50      0.55      0.01         0.01
  YS02006558YS02006561        0.27      0.45      0.27      0.63         0.27
  YS02006561YS02001783        0.20      0.20      0.36      0.01         0.01
  YS02163301YS02001633        1.66      1.66      1.70      0.24         0.01
  YS02163601YS02164001        1.58      1.58      1.70      0.55         0.01
  YS02164001YS02001641        1.57      1.58      1.57      1.35         1.15
  5                           0.01      0.01      0.01      0.01         0.01
  6                           0.01      0.01      0.01      0.01         0.01
  

  Analysis begun on:  Wed Aug  9 16:19:36 2023
  Analysis ended on:  Wed Aug  9 16:19:50 2023
  Total elapsed time: 00:00:14