
  OWA STORM WATER MANAGEMENT MODEL - VERSION v5.1.14 (OWA 2022-07-31)
  --------------------------------------------------------------

  WARNING 04: minimum elevation drop used for Conduit WS02004404WS02004405
  WARNING 03: negative offset ignored for Link YS02001904YS02001907
  
  *********************************************************
  NOTE: The summary statistics displayed in this report are
  based on results found at every computational time step,  
  not just on results from each reporting time step.
  *********************************************************
  
  ****************
  Analysis Options
  ****************
  Flow Units ............... LPS
  Process Models:
    Rainfall/Runoff ........ YES
    RDII ................... NO
    Snowmelt ............... NO
    Groundwater ............ NO
    Flow Routing ........... YES
    Ponding Allowed ........ NO
    Water Quality .......... NO
  Infiltration Method ...... HORTON
  Flow Routing Method ...... DYNWAVE
  Surcharge Method ......... EXTRAN
  Starting Date ............ 08/28/2015 08:00:00
  Ending Date .............. 08/28/2015 16:00:00
  Antecedent Dry Days ...... 8.0
  Report Time Step ......... 00:01:00
  Wet Time Step ............ 00:01:00
  Dry Time Step ............ 00:01:00
  Routing Time Step ........ 30.00 sec
  Variable Time Step ....... YES
  Maximum Trials ........... 8
  Number of Threads ........ 4
  Head Tolerance ........... 0.001500 m
  
  
  **************************        Volume         Depth
  Runoff Quantity Continuity     hectare-m            mm
  **************************     ---------       -------
  Initial LID Storage ......         0.049         1.488
  Total Precipitation ......         2.696        81.291
  Evaporation Loss .........         0.000         0.000
  Infiltration Loss ........         0.077         2.326
  Surface Runoff ...........         2.026        61.071
  Final Storage ............         0.644        19.414
  Continuity Error (%) .....        -0.039
  
  
  **************************        Volume        Volume
  Flow Routing Continuity        hectare-m      10^6 ltr
  **************************     ---------     ---------
  Dry Weather Inflow .......         0.000         0.000
  Wet Weather Inflow .......         2.025        20.247
  Groundwater Inflow .......         0.000         0.000
  RDII Inflow ..............         0.000         0.000
  External Inflow ..........         0.083         0.834
  External Outflow .........         1.844        18.439
  Flooding Loss ............         0.492         4.924
  Evaporation Loss .........         0.000         0.000
  Exfiltration Loss ........         0.000         0.000
  Initial Stored Volume ....         0.248         2.479
  Final Stored Volume ......         0.031         0.309
  Continuity Error (%) .....        -0.482
  
  
  *************************
  Highest Continuity Errors
  *************************
  Node YS02001583 (-15.42%)
  Node WS02004406 (10.53%)
  Node WS02004413 (8.08%)
  Node WS02004405 (6.13%)
  Node WS02006112 (5.18%)
  
  
  ***************************
  Time-Step Critical Elements
  ***************************
  Link 3 (98.05%)
  
  
  ********************************
  Highest Flow Instability Indexes
  ********************************
  Link YS02006558YS02006561 (10)
  Link YS02001790YS02001791 (7)
  Link YS02006556YS02006558 (5)
  Link YS02001882YS02001884 (4)
  Link YS02001884YS02001887 (4)
  
  
  *************************
  Routing Time Step Summary
  *************************
  Minimum Time Step           :     0.00 sec
  Average Time Step           :     1.95 sec
  Maximum Time Step           :     6.02 sec
  Percent in Steady State     :     0.00
  Average Iterations per Step :     2.25
  Percent Not Converging      :     2.73
  
  
  ***************************
  Subcatchment Runoff Summary
  ***************************
  
  ------------------------------------------------------------------------------------------------------------------------------
                            Total      Total      Total      Total     Imperv       Perv      Total       Total     Peak  Runoff
                           Precip      Runon       Evap      Infil     Runoff     Runoff     Runoff      Runoff   Runoff   Coeff
  Subcatchment                 mm         mm         mm         mm         mm         mm         mm    10^6 ltr      LPS
  ------------------------------------------------------------------------------------------------------------------------------
  sub60                     81.29       0.00       0.00       1.41      54.30       6.13      60.42        0.79   516.82   0.743
  sub61                     81.29       0.00       0.00       2.16      54.25       9.15      63.40        1.16   744.90   0.780
  sub62                     81.29       0.00       0.00       0.96      57.84       4.16      62.00        1.70  1017.93   0.763
  sub63                     81.29       0.00       0.00       3.91      46.46      15.39      61.85        1.40   810.56   0.761
  sub64                     81.29       0.00       0.00       1.88      52.91       7.62      60.53        1.45   809.80   0.745
  sub65                     81.29       0.00       0.00       1.73      57.11       6.96      64.07        1.76   943.68   0.788
  sub66                     81.29       0.00       0.00       4.50      44.94      14.20      59.14        2.76  1183.33   0.728
  sub67                     81.29       0.00       0.00       0.95      59.29       4.30      63.58        1.18   811.29   0.782
  sub68                     81.29       0.00       0.00       1.65      52.36       7.02      59.38        1.63  1010.59   0.731
  sub69                     81.29       0.00       0.00       1.50      54.69       8.16      62.85        2.33  1236.13   0.773
  sub70                     81.29       0.00       0.00       4.94      43.82      17.69      61.51        1.78   687.01   0.757
  sub71                     81.29       0.00       0.00       0.88      52.54       3.77      56.31        1.47   826.58   0.693
  sub72                     81.29       0.00       0.00       0.84      56.76       3.51      60.28        0.83   418.27   0.741
  

  ***********************
  LID Performance Summary
  ***********************

  --------------------------------------------------------------------------------------------------------------------
                                         Total      Evap     Infil   Surface    Drain    Initial     Final  Continuity
                                        Inflow      Loss      Loss   Outflow   Outflow   Storage   Storage       Error
  Subcatchment      LID Control             mm        mm        mm        mm        mm        mm        mm           %
  --------------------------------------------------------------------------------------------------------------------
  sub60             GreenRoof            81.29      0.00      0.00      0.00      0.00      7.05     88.38       -0.05
  sub61             GreenRoof            81.29      0.00      0.00      0.00      0.00      7.05     88.38       -0.05
  sub62             GreenRoof            81.29      0.00      0.00      0.00      0.00      7.05     88.38       -0.05
  sub63             GreenRoof            81.29      0.00      0.00      0.00      0.00      7.05     88.38       -0.05
  sub64             GreenRoof            81.29      0.00      0.00      0.00      0.00      7.05     88.38       -0.05
  sub65             GreenRoof            81.29      0.00      0.00      0.00      0.00      7.05     88.38       -0.05
  sub66             GreenRoof            81.29      0.00      0.00      0.00      0.00      7.05     88.38       -0.05
  sub67             GreenRoof            81.29      0.00      0.00      0.00      0.00      7.05     88.38       -0.05
  sub68             GreenRoof            81.29      0.00      0.00      0.00      0.00      7.05     88.38       -0.05
  sub69             GreenRoof            81.29      0.00      0.00      0.00      0.00      7.05     88.38       -0.05
  sub70             GreenRoof            81.29      0.00      0.00      0.00      0.00      7.05     88.38       -0.05
  sub71             GreenRoof            81.29      0.00      0.00      0.00      0.00      7.05     88.38       -0.05
  sub72             GreenRoof            81.29      0.00      0.00      0.00      0.00      7.05     88.38       -0.05
  
  ******************
  Node Depth Summary
  ******************
  
  ---------------------------------------------------------------------------------
                                 Average  Maximum  Maximum  Time of Max    Reported
                                   Depth    Depth      HGL   Occurrence   Max Depth
  Node                 Type       Meters   Meters   Meters  days hr:min      Meters
  ---------------------------------------------------------------------------------
  WS02003060           JUNCTION     0.07     0.09     5.02     0  06:19        0.09
  WS02003066           JUNCTION     0.02     0.09     5.64     0  05:32        0.09
  WS02003067           JUNCTION     0.08     0.33     5.65     0  05:33        0.33
  WS02003069           JUNCTION     0.08     0.10     4.68     0  07:20        0.10
  WS02003072           JUNCTION     0.12     0.15     4.52     0  07:43        0.15
  WS02003073           JUNCTION     0.06     0.07     4.14     0  07:46        0.07
  WS02004401           JUNCTION     0.22     0.36     6.36     0  05:11        0.36
  WS02004402           JUNCTION     0.26     0.40     6.36     0  05:01        0.40
  WS02004403           JUNCTION     0.28     0.43     6.36     0  04:52        0.43
  WS02004404           JUNCTION     0.35     0.51     6.36     0  05:29        0.51
  WS02004405           JUNCTION     0.35     0.51     6.36     0  04:58        0.51
  WS02004406           JUNCTION     0.37     0.53     6.36     0  05:19        0.53
  WS02004407           JUNCTION     0.02     0.04     6.36     0  05:46        0.04
  WS02004409           JUNCTION     0.04     0.12     5.89     0  06:17        0.12
  WS02004410           JUNCTION     0.05     0.16     5.88     0  05:38        0.16
  WS02004411           JUNCTION     0.06     0.20     5.88     0  05:15        0.20
  WS02004412           JUNCTION     0.07     0.24     5.88     0  05:03        0.24
  WS02004413           JUNCTION     0.12     0.41     5.88     0  05:19        0.41
  WS02006109           JUNCTION     0.32     0.34     6.96     0  04:26        0.34
  WS02006110           JUNCTION     0.35     0.37     6.96     0  05:04        0.37
  WS02006111           JUNCTION     0.05     0.05     6.76     0  07:04        0.05
  WS02006112           JUNCTION     0.36     0.48     6.36     0  06:31        0.48
  WS02006113           JUNCTION     0.06     0.06     6.96     0  07:03        0.06
  WS02006115           JUNCTION     0.13     0.22     6.36     0  06:04        0.22
  WS02006116           JUNCTION     0.20     0.32     6.36     0  05:37        0.32
  WS02006228           JUNCTION     0.29     0.31     6.96     0  03:48        0.31
  WS02006229           JUNCTION     0.25     0.27     6.96     0  03:27        0.27
  WS02006230           JUNCTION     0.21     0.22     6.96     0  04:00        0.22
  WS02006231           JUNCTION     0.00     0.00     7.12     0  00:00        0.00
  WS02006232           JUNCTION     0.00     0.00     7.04     0  00:00        0.00
  WS02006234           JUNCTION     0.00     0.00     7.16     0  00:00        0.00
  WS02006235           JUNCTION     0.00     0.00     7.16     0  00:00        0.00
  WS02006238           JUNCTION     0.00     0.00     7.14     0  00:00        0.00
  WS02006239           JUNCTION     0.00     0.00     7.21     0  00:00        0.00
  WS02006240           JUNCTION     0.00     0.00     7.29     0  00:00        0.00
  WS02006242           JUNCTION     0.00     0.00     7.27     0  00:00        0.00
  WS02006243           JUNCTION     0.00     0.00     7.42     0  00:00        0.00
  WS02006245           JUNCTION     0.00     0.00     7.48     0  00:00        0.00
  WS02006247           JUNCTION     0.00     0.00     7.50     0  00:00        0.00
  WS02006248           JUNCTION     0.00     0.00     7.59     0  00:00        0.00
  WS02006249           JUNCTION     0.00     0.00     7.60     0  00:00        0.00
  WS02006251           JUNCTION     0.00     0.00     7.67     0  00:00        0.00
  WS02006252           JUNCTION     0.00     0.00     8.24     0  00:00        0.00
  WS02006256           JUNCTION     0.00     0.00     6.93     0  00:00        0.00
  WSF200               JUNCTION     0.01     0.04     5.28     0  05:43        0.04
  YS02001580           JUNCTION     0.18     1.05     9.59     0  01:24        0.77
  YS02001583           JUNCTION     0.21     1.14     9.64     0  01:24        0.82
  YS02001586           JUNCTION     0.33     1.13     9.30     0  01:24        1.13
  YS02001590           JUNCTION     0.45     1.40     9.26     0  01:23        1.36
  YS02001593           JUNCTION     0.38     1.46     9.32     0  01:23        1.28
  YS02001596           JUNCTION     0.51     1.78     9.19     0  01:23        1.65
  YS02001600           JUNCTION     0.62     1.87     9.00     0  01:23        1.86
  YS02001601           JUNCTION     0.81     2.06     8.90     0  01:23        2.06
  YS02001602           JUNCTION     0.70     1.87     8.77     0  01:25        1.87
  YS02001605           JUNCTION     0.65     1.78     8.68     0  01:25        1.78
  YS02001607           JUNCTION     0.60     1.68     8.53     0  01:25        1.64
  YS02001610           JUNCTION     0.64     1.68     8.48     0  01:25        1.68
  YS02001613           JUNCTION     0.59     1.70     8.54     0  01:25        1.66
  YS02001616           JUNCTION     0.53     1.61     8.52     0  01:25        1.61
  YS02001619           JUNCTION     0.51     1.61     8.54     0  01:25        1.61
  YS02001622           JUNCTION     0.49     1.62     8.52     0  01:25        1.62
  YS02001625           JUNCTION     0.74     1.78     8.38     0  01:25        1.78
  YS02001629           JUNCTION     0.64     1.85     8.40     0  01:24        1.85
  YS02001633           JUNCTION     0.71     2.07     8.53     0  01:25        2.03
  YS02001641           JUNCTION     0.66     1.99     8.43     0  01:25        1.94
  YS02001644           JUNCTION     0.64     1.92     8.35     0  01:25        1.92
  YS02001647           JUNCTION     0.41     1.85     8.46     0  01:26        1.79
  YS02001649           JUNCTION     0.45     2.05     8.44     0  01:25        2.05
  YS02001652           JUNCTION     0.32     2.16     8.76     0  01:25        1.80
  YS02001655           JUNCTION     0.23     2.20     9.05     0  01:25        1.59
  YS02001658           JUNCTION     0.17     2.30     9.44     0  01:26        1.36
  YS02001661           JUNCTION     0.19     2.46     9.86     0  01:26        1.17
  YS02001664           JUNCTION     0.09     0.99     8.92     0  01:27        0.57
  YS02001745           JUNCTION     0.09     2.35     9.87     0  01:26        1.86
  YS02001748           JUNCTION     0.15     2.27     9.35     0  01:26        2.27
  YS02001751           JUNCTION     0.18     2.20     9.08     0  01:26        2.20
  YS02001754           JUNCTION     0.25     2.20     8.81     0  01:26        2.20
  YS02001757           JUNCTION     0.45     2.21     8.47     0  01:26        2.21
  YS02001759           JUNCTION     0.39     2.20     8.57     0  01:26        2.19
  YS02001762           JUNCTION     0.37     2.15     8.55     0  01:26        2.15
  YS02001765           JUNCTION     0.35     2.10     8.55     0  01:26        2.08
  YS02001767           JUNCTION     0.34     2.03     8.52     0  01:26        2.01
  YS02001770           JUNCTION     0.36     1.95     8.44     0  01:26        1.95
  YS02001774           JUNCTION     0.42     2.05     8.47     0  01:26        1.99
  YS02001779           JUNCTION     0.24     1.68     8.37     0  01:26        1.68
  YS02001783           JUNCTION     0.36     1.39     7.53     0  01:25        1.23
  YS02001784           JUNCTION     0.35     1.45     7.52     0  01:25        1.10
  YS02001786           JUNCTION     0.29     1.47     7.50     0  01:25        0.87
  YS02001788           JUNCTION     0.21     0.64     6.62     0  01:25        0.64
  YS02001790           JUNCTION     0.25     0.72     6.37     0  01:28        0.71
  YS02001791           JUNCTION     0.16     0.44     5.91     0  01:39        0.42
  YS02001793           JUNCTION     0.08     0.22     5.05     0  01:28        0.22
  YS02001882           JUNCTION     0.44     1.83     8.55     0  01:25        1.64
  YS02001884           JUNCTION     0.53     1.93     8.55     0  01:25        1.74
  YS02001887           JUNCTION     0.60     1.92     8.45     0  01:25        1.82
  YS02001890           JUNCTION     0.62     1.81     8.32     0  01:25        1.81
  YS02001895           JUNCTION     0.41     1.75     8.50     0  01:25        1.56
  YS02001898           JUNCTION     0.42     1.77     8.51     0  01:25        1.57
  YS02001901           JUNCTION     0.53     1.82     8.43     0  01:25        1.68
  YS02001904           JUNCTION     0.51     1.73     8.36     0  01:25        1.65
  YS02001907           JUNCTION     0.80     1.96     8.25     0  01:25        1.96
  YS02001910           JUNCTION     0.62     2.10     8.61     0  01:25        1.87
  YS02001915           JUNCTION     0.44     2.00     8.72     0  01:25        1.76
  YS02001918           JUNCTION     0.26     1.81     8.88     0  01:25        1.46
  YS02001920           JUNCTION     0.33     2.14     9.15     0  01:25        1.71
  YS02001923           JUNCTION     0.21     2.03     9.29     0  01:26        2.03
  YS02001926           JUNCTION     0.23     1.90     9.35     0  01:26        1.20
  YS02001929           JUNCTION     0.14     1.78     9.47     0  01:26        1.00
  YS02006553           JUNCTION     0.80     1.98     8.27     0  01:25        1.98
  YS02006556           JUNCTION     0.78     1.96     8.28     0  01:25        1.95
  YS02006558           JUNCTION     0.81     2.01     8.28     0  01:25        1.99
  YS02006561           JUNCTION     0.23     1.02     7.68     0  01:25        0.89
  YS02163301           JUNCTION     0.66     1.95     8.47     0  01:25        1.92
  YS02163601           JUNCTION     0.73     2.08     8.48     0  01:25        2.03
  YS02164001           JUNCTION     0.65     2.01     8.47     0  01:25        1.94
  CC-1                 OUTFALL      0.09     0.73     0.73     0  00:00        0.38
  CC-2                 OUTFALL      0.09     0.73     0.73     0  00:00        0.38
  JK-1                 OUTFALL      0.08     1.00     1.00     0  00:00        0.20
  JK-2                 OUTFALL      0.08     1.00     1.00     0  00:00        0.20
  WSC                  OUTFALL      0.06     0.07     0.74     0  07:46        0.07
  CC-storage           STORAGE      0.09     0.80     6.30     0  00:00        0.38
  JK-storage           STORAGE      0.08     3.00     3.80     0  00:00        0.20
  
  
  *******************
  Node Inflow Summary
  *******************
  
  -------------------------------------------------------------------------------------------------
                                  Maximum  Maximum                  Lateral       Total        Flow
                                  Lateral    Total  Time of Max      Inflow      Inflow     Balance
                                   Inflow   Inflow   Occurrence      Volume      Volume       Error
  Node                 Type           LPS      LPS  days hr:min    10^6 ltr    10^6 ltr     Percent
  -------------------------------------------------------------------------------------------------
  WS02003060           JUNCTION     16.53    26.81     0  05:44       0.476       0.608       0.313
  WS02003066           JUNCTION      0.00    10.28     0  05:18           0       0.134       0.818
  WS02003067           JUNCTION      0.00    10.28     0  05:21           0       0.138       2.957
  WS02003069           JUNCTION      0.32    27.13     0  06:21     0.00922       0.616       0.534
  WS02003072           JUNCTION      0.00    27.13     0  07:20           0       0.612       0.981
  WS02003073           JUNCTION      1.82    28.95     0  07:43      0.0524       0.659       0.713
  WS02004401           JUNCTION      0.00    10.34     0  01:37           0       0.238       4.243
  WS02004402           JUNCTION      0.00    10.30     0  04:39           0       0.228       4.558
  WS02004403           JUNCTION      0.00    10.49     0  01:25           0       0.218       4.625
  WS02004404           JUNCTION      0.00    10.33     0  04:31           0       0.209       4.001
  WS02004405           JUNCTION      0.00    10.32     0  04:35           0       0.201       6.531
  WS02004406           JUNCTION      0.00    10.30     0  04:42           0       0.188      11.769
  WS02004407           JUNCTION      0.00    10.28     0  05:19           0       0.168       0.555
  WS02004409           JUNCTION      0.00    10.28     0  05:41           0       0.168       1.275
  WS02004410           JUNCTION      0.00    10.28     0  05:14           0       0.165       2.294
  WS02004411           JUNCTION      0.00    10.30     0  04:50           0       0.162       3.154
  WS02004412           JUNCTION      0.00    10.38     0  04:41           0       0.157       4.549
  WS02004413           JUNCTION      0.00    10.50     0  04:38           0        0.15       8.796
  WS02006109           JUNCTION      0.00    10.28     0  03:01           0       0.284       3.381
  WS02006110           JUNCTION      0.00    10.28     0  03:51           0       0.275       3.024
  WS02006111           JUNCTION      0.00    10.28     0  07:04           0       0.266       0.192
  WS02006112           JUNCTION      0.00    10.28     0  04:40           0       0.265       5.464
  WS02006113           JUNCTION      0.00    10.28     0  07:03           0       0.267       0.411
  WS02006115           JUNCTION      0.00    10.58     0  02:07           0       0.251       2.627
  WS02006116           JUNCTION      0.00    10.81     0  02:07           0       0.245       3.019
  WS02006228           JUNCTION      0.00    10.31     0  00:09           0        0.29       2.095
  WS02006229           JUNCTION      0.00    10.49     0  00:19           0       0.293       1.037
  WS02006230           JUNCTION     10.28    10.28     0  00:00       0.296       0.296       0.979
  WS02006231           JUNCTION      0.00     0.00     0  00:00           0           0       0.000 ltr
  WS02006232           JUNCTION      0.00     0.00     0  00:00           0           0       0.000 ltr
  WS02006234           JUNCTION      0.00     0.00     0  00:00           0           0       0.000 ltr
  WS02006235           JUNCTION      0.00     0.00     0  00:00           0           0       0.000 ltr
  WS02006238           JUNCTION      0.00     0.00     0  00:00           0           0       0.000 ltr
  WS02006239           JUNCTION      0.00     0.00     0  00:00           0           0       0.000 ltr
  WS02006240           JUNCTION      0.00     0.00     0  00:00           0           0       0.000 ltr
  WS02006242           JUNCTION      0.00     0.00     0  00:00           0           0       0.000 ltr
  WS02006243           JUNCTION      0.00     0.00     0  00:00           0           0       0.000 ltr
  WS02006245           JUNCTION      0.00     0.00     0  00:00           0           0       0.000 ltr
  WS02006247           JUNCTION      0.00     0.00     0  00:00           0           0       0.000 ltr
  WS02006248           JUNCTION      0.00     0.00     0  00:00           0           0       0.000 ltr
  WS02006249           JUNCTION      0.00     0.00     0  00:00           0           0       0.000 ltr
  WS02006251           JUNCTION      0.00     0.00     0  00:00           0           0       0.000 ltr
  WS02006252           JUNCTION      0.00     0.00     0  00:00           0           0       0.000 ltr
  WS02006256           JUNCTION      0.00     0.00     0  00:00           0           0       0.000 ltr
  WSF200               JUNCTION      0.00    10.28     0  05:32           0       0.133       0.298
  YS02001580           JUNCTION      0.00   322.21     0  01:24           0     0.00499      -6.126
  YS02001583           JUNCTION      0.00   318.76     0  01:24           0      0.0154     -13.358
  YS02001586           JUNCTION    687.01   687.01     0  01:31        1.78        1.79       0.093
  YS02001590           JUNCTION      0.00   317.64     0  01:29           0        1.39      -0.084
  YS02001593           JUNCTION      0.00   317.65     0  01:29           0        1.39       0.014
  YS02001596           JUNCTION      0.00   317.69     0  01:29           0        1.39      -0.010
  YS02001600           JUNCTION      0.00   317.64     0  01:29           0        1.39       0.005
  YS02001601           JUNCTION   1236.13  1553.66     0  01:29        2.33        3.72       0.026
  YS02001602           JUNCTION      0.00   603.03     0  01:24           0        2.38       0.014
  YS02001605           JUNCTION      0.00   603.15     0  01:24           0        2.28       0.007
  YS02001607           JUNCTION      0.00   602.96     0  01:24           0        2.28       0.048
  YS02001610           JUNCTION      0.00   633.17     0  01:31           0        2.48       0.077
  YS02001613           JUNCTION      0.00   536.09     0  01:24           0        2.03       0.043
  YS02001616           JUNCTION      0.00   695.72     0  01:25           0        2.04      -0.024
  YS02001619           JUNCTION   1183.33  1183.33     0  01:31        2.76        4.59      -0.022
  YS02001622           JUNCTION      0.00   990.19     0  01:24           0        4.38      -0.027
  YS02001625           JUNCTION      0.00  1252.71     0  01:31           0        4.52       0.205
  YS02001629           JUNCTION      0.00   960.49     0  01:54           0        3.79      -0.018
  YS02001633           JUNCTION    943.68  1292.08     0  01:50        1.76        5.37       0.052
  YS02001641           JUNCTION      0.00  1290.82     0  01:50           0        5.19       0.045
  YS02001644           JUNCTION    809.80  1920.19     0  01:25        1.45        6.64       0.046
  YS02001647           JUNCTION      0.00  1919.67     0  01:25           0        6.38      -0.001
  YS02001649           JUNCTION      0.00  2179.44     0  01:26           0        7.79      -0.003
  YS02001652           JUNCTION      0.00  1015.65     0  01:27           0         1.4      -0.258
  YS02001655           JUNCTION      0.00  1014.99     0  01:27           0         1.4       0.101
  YS02001658           JUNCTION      0.00  1014.49     0  01:27           0         1.4      -0.046
  YS02001661           JUNCTION      0.00  1012.46     0  01:27           0         1.4       0.005
  YS02001664           JUNCTION    810.56   810.56     0  01:28         1.4         1.4      -0.010
  YS02001745           JUNCTION    516.82   731.73     0  01:26       0.793       0.795       0.163
  YS02001748           JUNCTION      0.00   785.02     0  01:26           0       0.797      -0.434
  YS02001751           JUNCTION      0.00   842.18     0  01:26           0       0.806       0.186
  YS02001754           JUNCTION      0.00   628.15     0  01:25           0       0.811      -0.391
  YS02001757           JUNCTION      0.00  3347.28     0  01:27           0        11.3      -0.014
  YS02001759           JUNCTION    744.90  1393.17     0  01:26        1.16        2.73      -0.016
  YS02001762           JUNCTION      0.00   774.69     0  01:33           0        1.57      -0.003
  YS02001765           JUNCTION      0.00   774.33     0  01:33           0        1.56      -0.036
  YS02001767           JUNCTION      0.00   774.25     0  01:33           0        1.56      -0.055
  YS02001770           JUNCTION   1017.93  1017.93     0  01:28         1.7        1.74      -0.067
  YS02001774           JUNCTION      0.00   836.51     0  01:26           0       0.197       0.298
  YS02001779           JUNCTION      0.00   847.79     0  01:26           0       0.153      -0.485
  YS02001783           JUNCTION      0.00  1163.75     0  01:26           0        3.95      -0.005
  YS02001784           JUNCTION      0.00  1163.79     0  01:26           0        3.95      -0.005
  YS02001786           JUNCTION      0.00  1163.73     0  01:26           0        3.95       0.003
  YS02001788           JUNCTION      0.00  1163.99     0  01:26           0        3.95       0.002
  YS02001790           JUNCTION      0.00  1207.77     0  01:26           0        3.95       0.052
  YS02001791           JUNCTION      0.00  1283.09     0  01:28           0        3.95      -0.045
  YS02001793           JUNCTION      0.00  1247.89     0  01:28           0        3.95       0.003
  YS02001882           JUNCTION      0.00   231.04     0  01:25           0      0.0123      -0.501
  YS02001884           JUNCTION      0.00   333.90     0  01:24           0      0.0481       3.689
  YS02001887           JUNCTION    811.29   812.12     0  01:26        1.18        1.22       0.302
  YS02001890           JUNCTION      0.00   811.91     0  01:26           0        1.18       0.338
  YS02001895           JUNCTION      0.00   736.02     0  01:25           0        1.09       0.138
  YS02001898           JUNCTION      0.00   679.68     0  01:25           0        1.09      -0.179
  YS02001901           JUNCTION      0.00   560.12     0  01:25           0        1.09       0.220
  YS02001904           JUNCTION      0.00   558.60     0  01:25           0        1.12       0.181
  YS02001907           JUNCTION      0.00  1819.43     0  01:27           0        3.41       0.480
  YS02001910           JUNCTION      0.00  1291.36     0  01:27           0         2.3       0.259
  YS02001915           JUNCTION    826.58  1291.24     0  01:27        1.47        2.36      -0.016
  YS02001918           JUNCTION      0.00  1041.21     0  01:25           0       0.922      -0.041
  YS02001920           JUNCTION      0.00   990.73     0  01:25           0       0.888      -0.047
  YS02001923           JUNCTION      0.00  1348.99     0  01:25           0       0.867      -0.304
  YS02001926           JUNCTION      0.00  1522.21     0  01:26           0       0.847       0.053
  YS02001929           JUNCTION    418.27   961.23     0  01:26       0.828       0.834      -0.121
  YS02006553           JUNCTION      0.00   786.91     0  01:47           0        2.39       0.451
  YS02006556           JUNCTION      0.00   787.06     0  01:47           0        2.41       0.299
  YS02006558           JUNCTION   1010.59  1223.27     0  01:25        1.63           4       0.081
  YS02006561           JUNCTION      0.00  1225.86     0  01:25           0        3.95      -0.014
  YS02163301           JUNCTION      0.00   962.68     0  01:53           0        3.79       0.029
  YS02163601           JUNCTION      0.00  1291.88     0  01:50           0        5.18       0.088
  YS02164001           JUNCTION      0.00  1291.59     0  01:50           0        5.18       0.039
  CC-1                 OUTFALL       0.00 16161.72     0  00:00           0        6.66       0.000
  CC-2                 OUTFALL       0.00 17045.67     0  00:00           0        6.93       0.000
  JK-1                 OUTFALL       0.00  8590.66     0  00:00           0        2.08       0.000
  JK-2                 OUTFALL       0.00  8788.77     0  00:00           0        2.12       0.000
  WSC                  OUTFALL       0.00    28.95     0  07:46           0       0.654       0.000
  CC-storage           STORAGE       0.00  3333.21     0  01:27           0        13.5      -0.441
  JK-storage           STORAGE       0.00  1272.11     0  01:28           0         4.1      -2.469
  
  
  **********************
  Node Surcharge Summary
  **********************
  
  Surcharging occurs when water rises above the top of the highest conduit.
  ---------------------------------------------------------------------
                                               Max. Height   Min. Depth
                                   Hours       Above Crown    Below Rim
  Node                 Type      Surcharged         Meters       Meters
  ---------------------------------------------------------------------
  YS02001580           JUNCTION        0.67          0.450        0.000
  YS02001583           JUNCTION        0.67          0.500        0.000
  YS02001586           JUNCTION        0.78          0.510        0.000
  YS02001590           JUNCTION        0.85          0.750        0.000
  YS02001593           JUNCTION        0.85          0.840        0.000
  YS02001596           JUNCTION        0.95          1.046        0.024
  YS02001600           JUNCTION        1.12          1.190        0.000
  YS02001601           JUNCTION        1.61          1.440        0.000
  YS02001602           JUNCTION        1.43          1.270        0.000
  YS02001605           JUNCTION        1.36          1.180        0.000
  YS02001607           JUNCTION        0.76          0.680        0.000
  YS02001610           JUNCTION        0.79          0.680        0.000
  YS02001613           JUNCTION        0.75          0.700        0.000
  YS02001616           JUNCTION        0.70          0.610        0.000
  YS02001619           JUNCTION        0.68          0.610        0.000
  YS02001622           JUNCTION        0.67          0.620        0.000
  YS02001625           JUNCTION        0.89          0.780        0.000
  YS02001629           JUNCTION        0.54          0.470        0.000
  YS02001633           JUNCTION        0.90          1.055        0.005
  YS02001641           JUNCTION        0.77          0.989        0.111
  YS02001644           JUNCTION        0.69          0.920        0.000
  YS02001647           JUNCTION        0.42          0.849        0.051
  YS02001649           JUNCTION        0.46          1.050        0.000
  YS02001652           JUNCTION        0.34          1.130        0.000
  YS02001655           JUNCTION        0.26          1.200        0.000
  YS02001658           JUNCTION        0.16          1.300        0.000
  YS02001661           JUNCTION        0.02          1.390        0.000
  YS02001745           JUNCTION        0.01          1.350        0.000
  YS02001748           JUNCTION        0.07          1.190        0.000
  YS02001751           JUNCTION        0.18          1.200        0.000
  YS02001754           JUNCTION        0.26          1.150        0.000
  YS02001757           JUNCTION        0.44          1.210        0.000
  YS02001759           JUNCTION        0.40          1.205        0.005
  YS02001762           JUNCTION        0.38          1.150        0.000
  YS02001765           JUNCTION        0.35          1.100        0.000
  YS02001767           JUNCTION        0.34          1.030        0.000
  YS02001770           JUNCTION        0.33          0.920        0.000
  YS02001774           JUNCTION        0.38          1.050        0.000
  YS02001779           JUNCTION        0.27          0.680        0.000
  YS02001783           JUNCTION        0.54          0.590        1.010
  YS02001784           JUNCTION        0.52          0.651        0.839
  YS02001786           JUNCTION        0.41          0.665        0.765
  YS02001882           JUNCTION        0.49          0.830        0.000
  YS02001884           JUNCTION        0.50          0.870        0.000
  YS02001887           JUNCTION        0.53          0.866        0.084
  YS02001890           JUNCTION        0.55          0.760        0.000
  YS02001895           JUNCTION        0.48          0.750        0.000
  YS02001898           JUNCTION        0.47          0.740        0.000
  YS02001901           JUNCTION        0.52          0.822        0.048
  YS02001904           JUNCTION        0.51          0.727        0.123
  YS02001907           JUNCTION        0.71          0.950        0.000
  YS02001910           JUNCTION        0.57          1.100        0.000
  YS02001915           JUNCTION        0.49          1.000        0.000
  YS02001918           JUNCTION        0.40          0.810        0.000
  YS02001920           JUNCTION        0.41          1.140        0.000
  YS02001923           JUNCTION        0.04          0.820        0.000
  YS02001926           JUNCTION        0.06          0.900        0.000
  YS02001929           JUNCTION        0.01          0.780        0.000
  YS02006553           JUNCTION        0.74          0.981        0.209
  YS02006556           JUNCTION        0.64          0.925        0.425
  YS02006558           JUNCTION        0.64          0.908        0.492
  YS02006561           JUNCTION        0.37          0.217        0.933
  YS02163301           JUNCTION        0.88          0.951        0.079
  YS02163601           JUNCTION        0.92          1.080        0.000
  YS02164001           JUNCTION        0.79          1.011        0.089
  
  
  *********************
  Node Flooding Summary
  *********************
  
  Flooding refers to all water that overflows a node, whether it ponds or not.
  --------------------------------------------------------------------------
                                                             Total   Maximum
                                 Maximum   Time of Max       Flood    Ponded
                        Hours       Rate    Occurrence      Volume     Depth
  Node                 Flooded       LPS   days hr:min    10^6 ltr    Meters
  --------------------------------------------------------------------------
  YS02001580              0.01    307.79      0  01:24       0.002     0.000
  YS02001583              0.01    254.88      0  01:24       0.001     0.000
  YS02001586              0.53    369.50      0  01:31       0.385     0.000
  YS02001590              0.01    228.77      0  01:23       0.001     0.000
  YS02001593              0.01     57.13      0  01:23       0.000     0.000
  YS02001600              0.01     29.87      0  01:23       0.000     0.000
  YS02001601              0.68   1155.81      0  01:29       1.336     0.000
  YS02001602              0.46     61.83      0  01:48       0.096     0.000
  YS02001605              0.01     10.06      0  01:25       0.000     0.000
  YS02001607              0.01    400.54      0  01:25       0.003     0.000
  YS02001610              0.42    633.16      0  01:31       0.646     0.000
  YS02001613              0.01    427.75      0  01:25       0.002     0.000
  YS02001616              0.01    558.18      0  01:25       0.005     0.000
  YS02001619              0.01    403.66      0  01:25       0.001     0.000
  YS02001622              0.01    385.73      0  01:25       0.001     0.000
  YS02001625              0.36   1252.70      0  01:31       0.902     0.000
  YS02001629              0.09    341.63      0  01:24       0.048     0.000
  YS02001644              0.15    961.50      0  01:27       0.240     0.000
  YS02001649              0.01    190.09      0  01:27       0.002     0.000
  YS02001652              0.01     47.12      0  01:26       0.000     0.000
  YS02001655              0.01    538.85      0  01:26       0.001     0.000
  YS02001658              0.01    278.20      0  01:26       0.001     0.000
  YS02001661              0.01    254.12      0  01:26       0.000     0.000
  YS02001745              0.01    256.14      0  01:26       0.000     0.000
  YS02001748              0.01    547.42      0  01:26       0.002     0.000
  YS02001751              0.01     66.10      0  01:26       0.000     0.000
  YS02001754              0.01    441.54      0  01:26       0.001     0.000
  YS02001757              0.01     72.59      0  01:27       0.000     0.000
  YS02001762              0.01    147.98      0  01:26       0.000     0.000
  YS02001765              0.01    163.10      0  01:26       0.000     0.000
  YS02001767              0.01    340.28      0  01:26       0.001     0.000
  YS02001770              0.01    395.54      0  01:26       0.002     0.000
  YS02001774              0.01    208.85      0  01:26       0.000     0.000
  YS02001779              0.13    802.72      0  01:26       0.134     0.000
  YS02001882              0.01    165.46      0  01:25       0.000     0.000
  YS02001884              0.01     82.02      0  01:25       0.000     0.000
  YS02001890              0.14    364.02      0  01:25       0.085     0.000
  YS02001895              0.01    295.80      0  01:25       0.000     0.000
  YS02001898              0.01    600.18      0  01:25       0.003     0.000
  YS02001907              0.34   1671.19      0  01:27       1.007     0.000
  YS02001910              0.01     94.26      0  01:25       0.000     0.000
  YS02001915              0.01    379.80      0  01:25       0.001     0.000
  YS02001918              0.01    227.50      0  01:26       0.005     0.000
  YS02001920              0.01    495.56      0  01:25       0.001     0.000
  YS02001923              0.01    792.03      0  01:26       0.002     0.000
  YS02001926              0.01    816.43      0  01:26       0.003     0.000
  YS02001929              0.01    845.31      0  01:26       0.006     0.000
  YS02163601              0.01      6.42      0  01:25       0.000     0.000
  
  
  **********************
  Storage Volume Summary
  **********************
  
  --------------------------------------------------------------------------------------------------
                         Average     Avg  Evap Exfil       Maximum     Max    Time of Max    Maximum
                          Volume    Pcnt  Pcnt  Pcnt        Volume    Pcnt     Occurrence    Outflow
  Storage Unit           1000 m3    Full  Loss  Loss       1000 m3    Full    days hr:min        LPS
  --------------------------------------------------------------------------------------------------
  CC-storage               0.259       4     0     0         2.229      35       0  00:00   32996.09
  JK-storage               0.004       1     0     0         0.151      52       0  00:00   17379.43
  
  
  ***********************
  Outfall Loading Summary
  ***********************
  
  -----------------------------------------------------------
                         Flow       Avg       Max       Total
                         Freq      Flow      Flow      Volume
  Outfall Node           Pcnt       LPS       LPS    10^6 ltr
  -----------------------------------------------------------
  CC-1                 100.00    565.39  16161.72       6.655
  CC-2                 100.00    588.65  17045.67       6.925
  JK-1                  93.12    188.33   8590.66       2.084
  JK-2                  93.15    191.59   8788.77       2.120
  WSC                   99.97     19.94     28.95       0.654
  -----------------------------------------------------------
  System                97.25   1553.90     28.95      18.439
  
  
  ********************
  Link Flow Summary
  ********************
  
  -----------------------------------------------------------------------------
                                 Maximum  Time of Max   Maximum    Max/    Max/
                                  |Flow|   Occurrence   |Veloc|    Full    Full
  Link                 Type          LPS  days hr:min     m/sec    Flow   Depth
  -----------------------------------------------------------------------------
  1                    CONDUIT     28.95     0  07:46      1.17    0.01    0.07
  WS02003060WS02003069 CONDUIT     26.81     0  06:21      0.77    0.01    0.08
  WS02003066WSF200     CONDUIT     10.28     0  05:32      0.89    0.00    0.03
  WS02003067WS02003066 CONDUIT     10.28     0  05:18      0.08    0.00    0.17
  WS02003069WS02003072 CONDUIT     27.13     0  07:20      0.62    0.01    0.10
  WS02003072WS02003073 CONDUIT     27.13     0  07:43      0.49    0.06    0.10
  WS02004401WS02004402 CONDUIT     10.30     0  04:39      0.34    0.01    0.38
  WS02004402WS02004403 CONDUIT     10.49     0  01:25      0.38    0.02    0.41
  WS02004403WS02004404 CONDUIT     10.33     0  04:31      0.37    0.01    0.47
  WS02004404WS02004405 CONDUIT     10.32     0  04:35      0.30    0.10    0.51
  WS02004405WS02004406 CONDUIT     10.30     0  04:42      0.30    0.02    0.52
  WS02004406WS02004407 CONDUIT     10.28     0  05:19      0.06    0.00    0.29
  WS02004407WS02004409 CONDUIT     10.28     0  05:41      0.50    0.00    0.08
  WS02004409WS02004410 CONDUIT     10.28     0  05:14      0.33    0.01    0.14
  WS02004410WS02004411 CONDUIT     10.30     0  04:50      0.31    0.01    0.18
  WS02004411WS02004412 CONDUIT     10.38     0  04:41      0.35    0.01    0.22
  WS02004412WS02004413 CONDUIT     10.50     0  04:38      0.28    0.01    0.32
  WS02004413WS02003067 CONDUIT     10.28     0  05:21      0.08    0.00    0.23
  WS02006109WS02006110 CONDUIT     10.28     0  03:51      0.20    0.02    0.38
  WS02006110WS02006113 CONDUIT     10.28     0  07:03      0.09    0.01    0.27
  WS02006111WS02006112 CONDUIT     10.28     0  04:40      0.65    0.00    0.31
  WS02006112WS02006115 CONDUIT     10.58     0  02:07      0.09    0.01    0.34
  WS02006113WS02006111 CONDUIT     10.28     0  07:04      0.65    0.01    0.07
  WS02006115WS02006116 CONDUIT     10.81     0  02:07      0.44    0.01    0.24
  WS02006116WS02004401 CONDUIT     10.34     0  01:37      0.34    0.01    0.34
  WS02006228WS02006109 CONDUIT     10.28     0  03:01      0.32    0.04    0.39
  WS02006229WS02006228 CONDUIT     10.31     0  00:09      0.42    0.03    0.34
  WS02006230WS02006229 CONDUIT     10.49     0  00:19      0.36    0.23    0.31
  WS02006231WS02006230 CONDUIT      0.00     0  00:00      0.00    0.00    0.00
  WS02006232WS02006231 CONDUIT      0.00     0  00:00      0.00    0.00    0.00
  WS02006234WS02006232 CONDUIT      0.00     0  00:00      0.00    0.00    0.00
  WS02006235WS02006234 CONDUIT      0.00     0  00:00      0.00    0.00    0.00
  WS02006238WS02006235 CONDUIT      0.00     0  00:00      0.00    0.00    0.00
  WS02006239WS02006238 CONDUIT      0.00     0  00:00      0.00    0.00    0.00
  WS02006240WS02006239 CONDUIT      0.00     0  00:00      0.00    0.00    0.00
  WS02006242WS02006240 CONDUIT      0.00     0  00:00      0.00    0.00    0.00
  WS02006243WS02006242 CONDUIT      0.00     0  00:00      0.00    0.00    0.00
  WS02006245WS02006243 CONDUIT      0.00     0  00:00      0.00    0.00    0.00
  WS02006247WS02006245 CONDUIT      0.00     0  00:00      0.00    0.00    0.00
  WS02006248WS02006247 CONDUIT      0.00     0  00:00      0.00    0.00    0.00
  WS02006249WS02006248 CONDUIT      0.00     0  00:00      0.00    0.00    0.00
  WS02006251WS02006249 CONDUIT      0.00     0  00:00      0.00    0.00    0.00
  WS02006252WS02006251 CONDUIT      0.00     0  00:00      0.00    0.00    0.00
  WS02006256WS02006235 CONDUIT      0.00     0  00:00      0.00    0.00    0.00
  WSF200WS02003060     CONDUIT     10.28     0  05:44      0.43    0.00    0.05
  YS02001580YS02001583 CONDUIT    322.21     0  01:24      1.23    1.25    1.00
  YS02001583YS02001586 CONDUIT    318.76     0  01:24      1.39    0.48    1.00
  YS02001586YS02001590 CONDUIT    317.64     0  01:29      1.37    0.56    1.00
  YS02001590YS02001593 CONDUIT    317.65     0  01:29      1.12    1.99    1.00
  YS02001593YS02001596 CONDUIT    317.69     0  01:29      1.75    0.50    1.00
  YS02001596YS02001600 CONDUIT    317.64     0  01:29      1.19    0.62    1.00
  YS02001600YS02001601 CONDUIT    317.62     0  01:28      1.12    0.55    1.00
  YS02001601YS02001602 CONDUIT    603.03     0  01:24      2.13    2.18    1.00
  YS02001602YS02001605 CONDUIT    603.15     0  01:24      2.13   12.76    1.00
  YS02001605YS02001607 CONDUIT    602.96     0  01:24      2.13    3.31    1.00
  YS02001607YS02001610 CONDUIT    575.44     0  01:24      0.82    0.55    1.00
  YS02001610YS02001613 CONDUIT    536.09     0  01:24      0.76    0.62    1.00
  YS02001613YS02001616 CONDUIT    513.15     0  02:04      0.74    0.44    1.00
  YS02001616YS02001619 CONDUIT    513.95     0  02:04      0.67    0.89    1.00
  YS02001619YS02001622 CONDUIT    990.19     0  01:24      1.58    1.46    1.00
  YS02001622YS02001625 CONDUIT    960.19     0  01:54      1.22    0.51    1.00
  YS02001625YS02001629 CONDUIT    960.49     0  01:54      1.22    0.46    1.00
  YS02001629YS02163301 CONDUIT    962.68     0  01:53      1.23    1.19    1.00
  YS02001633YS02163601 CONDUIT   1291.88     0  01:50      1.64    1.36    1.00
  YS02001641YS02001644 CONDUIT   1290.41     0  01:50      1.64    4.17    1.00
  YS02001644YS02001647 CONDUIT   1919.67     0  01:25      2.44    1.13    1.00
  YS02001647YS02001649 CONDUIT   1919.33     0  01:25      2.44    1.01    1.00
  YS02001649YS02001757 CONDUIT   2181.41     0  01:26      2.78    1.32    1.00
  YS02001652YS02001649 CONDUIT   1016.29     0  01:27      1.29    0.50    1.00
  YS02001655YS02001652 CONDUIT   1015.65     0  01:27      1.88    0.49    1.00
  YS02001658YS02001655 CONDUIT   1014.99     0  01:27      2.25    0.43    1.00
  YS02001661YS02001658 CONDUIT   1014.49     0  01:27      2.61    0.40    1.00
  YS02001664YS02001661 CONDUIT   1012.46     0  01:27      2.63    0.32    1.00
  YS02001745YS02001748 CONDUIT    623.68     0  01:26      2.54    0.24    1.00
  YS02001748YS02001751 CONDUIT    613.77     0  01:27      2.04    0.31    1.00
  YS02001751YS02001754 CONDUIT    613.53     0  01:27      1.86    0.30    1.00
  YS02001754YS02001757 CONDUIT    612.94     0  01:27      0.78    0.25    1.00
  YS02001757CaochengTiaoxuchi CONDUIT   3333.21     0  01:27      7.04    1.44    0.60
  YS02001759YS02001757 CONDUIT   1393.97     0  01:26      1.77    0.99    1.00
  YS02001762YS02001759 CONDUIT    774.82     0  01:33      0.99    0.89    1.00
  YS02001765YS02001762 CONDUIT    774.69     0  01:33      0.99    0.73    1.00
  YS02001767YS02001765 CONDUIT    774.33     0  01:33      0.99    0.97    1.00
  YS02001770YS02001767 CONDUIT    774.25     0  01:33      1.10    3.07    1.00
  YS02001774YS02001770 CONDUIT    836.51     0  01:26      1.07    0.53    1.00
  YS02001779YS02001774 CONDUIT    847.79     0  01:26      1.08    0.43    1.00
  YS02001783YS02001784 CONDUIT   1163.79     0  01:26      2.32    1.60    1.00
  YS02001784YS02001785 CONDUIT   1163.73     0  01:26      2.32    2.71    1.00
  YS02001786YS02001788 CONDUIT   1163.99     0  01:26      2.51    2.24    0.90
  YS02001788YS02001790 CONDUIT   1207.77     0  01:26      2.78    0.89    0.84
  YS02001790YS02001791 CONDUIT   1283.09     0  01:28      3.42    1.40    0.70
  YS02001791YS02001793 CONDUIT   1247.89     0  01:28      6.72    0.54    0.41
  YS02001793JiankangQianchi CONDUIT   1272.11     0  01:28     10.67    0.10    0.50
  YS02001882YS02001884 CONDUIT    231.04     0  01:25      0.29    0.26    1.00
  YS02001884YS02001887 CONDUIT    333.90     0  01:24      0.43    0.44    1.00
  YS02001887YS02001890 CONDUIT    811.91     0  01:26      1.03    1.39    1.00
  YS02001890YS02001895 CONDUIT    736.02     0  01:25      0.94    0.34    1.00
  YS02001895YS02001898 CONDUIT    679.68     0  01:25      0.87    1.18    1.00
  YS02001898YS02001901 CONDUIT    560.12     0  01:25      0.71    0.36    1.00
  YS02001901YS02001904 CONDUIT    558.60     0  01:25      0.71    0.87    1.00
  YS02001904YS02001907 CONDUIT    559.64     0  01:25      0.71    0.20    1.00
  YS02001907YS02006553 CONDUIT    786.91     0  01:47      0.87    0.93    1.00
  YS02001910YS02001907 CONDUIT   1291.39     0  01:27      1.64    0.73    1.00
  YS02001915YS02001910 CONDUIT   1291.36     0  01:27      1.64    0.64    1.00
  YS02001918YS02001915 CONDUIT   1041.21     0  01:25      1.33    0.57    1.00
  YS02001920YS02001918 CONDUIT    990.73     0  01:25      1.27    0.96    1.00
  YS02001923YS02001920 CONDUIT    995.03     0  01:25      1.34    0.45    1.00
  YS02001926YS02001923 CONDUIT   1187.96     0  01:26      1.65    1.70    1.00
  YS02001929YS02001926 CONDUIT    606.89     0  01:26      1.34    0.29    1.00
  YS02006553YS02006556 CONDUIT    787.06     0  01:47      1.00    0.67    1.00
  YS02006556YS02006558 CONDUIT    787.36     0  01:47      1.00    0.62    1.00
  YS02006558YS02006561 CONDUIT   1225.86     0  01:25      4.34    2.71    1.00
  YS02006561YS02001783 CONDUIT   1163.75     0  01:26      2.32    0.60    1.00
  YS02163301YS02001633 CONDUIT    962.87     0  01:53      1.23    0.91    1.00
  YS02163601YS02164001 CONDUIT   1291.59     0  01:50      1.64    1.14    1.00
  YS02164001YS02001641 CONDUIT   1290.82     0  01:50      1.64    1.76    1.00
  2                    CONDUIT  16161.72     0  00:00     26.41    0.88    0.73
  3                    CONDUIT  17045.67     0  00:00     27.65    0.89    0.73
  4                    CONDUIT      0.00     0  00:00      0.00    0.00    0.40
  5                    CONDUIT   8590.66     0  00:00     10.94    1.24    1.00
  6                    CONDUIT   8788.77     0  00:00     11.19    1.25    1.00
  7                    CONDUIT      0.00     0  00:00      0.00    0.00    0.50
  
  
  ***************************
  Flow Classification Summary
  ***************************
  
  -------------------------------------------------------------------------------------
                      Adjusted    ---------- Fraction of Time in Flow Class ---------- 
                       /Actual         Up    Down  Sub   Sup   Up    Down  Norm  Inlet 
  Conduit               Length    Dry  Dry   Dry   Crit  Crit  Crit  Crit  Ltd   Ctrl  
  -------------------------------------------------------------------------------------
  1                       1.00   0.00  0.00  0.00  0.00  1.00  0.00  0.00  0.92  0.00
  WS02003060WS02003069    1.00   0.00  0.00  0.00  0.98  0.02  0.00  0.00  0.99  0.00
  WS02003066WSF200        1.00   0.78  0.00  0.00  0.00  0.22  0.00  0.00  0.45  0.00
  WS02003067WS02003066    1.00   0.75  0.02  0.00  0.23  0.00  0.00  0.00  0.00  0.00
  WS02003069WS02003072    1.00   0.00  0.00  0.00  0.99  0.01  0.00  0.00  0.99  0.00
  WS02003072WS02003073    1.00   0.00  0.00  0.00  0.00  0.00  0.00  1.00  0.00  0.00
  WS02004401WS02004402    1.00   0.12  0.00  0.00  0.88  0.00  0.00  0.00  0.05  0.00
  WS02004402WS02004403    1.00   0.12  0.00  0.00  0.88  0.00  0.00  0.00  0.00  0.00
  WS02004403WS02004404    1.00   0.12  0.00  0.00  0.88  0.00  0.00  0.00  0.03  0.00
  WS02004404WS02004405    1.00   0.12  0.00  0.00  0.88  0.00  0.00  0.00  0.00  0.00
  WS02004405WS02004406    1.00   0.12  0.00  0.00  0.88  0.00  0.00  0.00  0.00  0.00
  WS02004406WS02004407    1.00   0.13  0.48  0.00  0.39  0.00  0.00  0.00  0.00  0.00
  WS02004407WS02004409    1.00   0.61  0.00  0.00  0.39  0.00  0.00  0.00  0.61  0.00
  WS02004409WS02004410    1.00   0.61  0.00  0.00  0.39  0.00  0.00  0.00  0.05  0.00
  WS02004410WS02004411    1.00   0.61  0.00  0.00  0.39  0.00  0.00  0.00  0.05  0.00
  WS02004411WS02004412    1.00   0.62  0.00  0.00  0.38  0.00  0.00  0.00  0.00  0.00
  WS02004412WS02004413    1.00   0.62  0.00  0.00  0.38  0.00  0.00  0.00  0.05  0.00
  WS02004413WS02003067    1.00   0.63  0.12  0.00  0.00  0.00  0.25  0.00  0.00  0.00
  WS02006109WS02006110    1.00   0.01  0.03  0.00  0.95  0.00  0.02  0.00  0.00  0.00
  WS02006110WS02006113    1.00   0.04  0.05  0.00  0.91  0.00  0.00  0.00  0.00  0.00
  WS02006111WS02006112    1.00   0.09  0.00  0.00  0.90  0.00  0.00  0.01  0.91  0.00
  WS02006112WS02006115    1.00   0.09  0.02  0.00  0.88  0.00  0.00  0.00  0.00  0.00
  WS02006113WS02006111    1.00   0.09  0.00  0.00  0.02  0.89  0.00  0.00  0.00  0.00
  WS02006115WS02006116    1.00   0.12  0.00  0.00  0.68  0.00  0.00  0.21  0.01  0.00
  WS02006116WS02004401    1.00   0.12  0.00  0.00  0.88  0.00  0.00  0.00  0.01  0.00
  WS02006228WS02006109    1.00   0.00  0.00  0.00  0.97  0.00  0.00  0.03  0.00  0.00
  WS02006229WS02006228    1.00   0.00  0.00  0.00  0.97  0.00  0.00  0.03  0.00  0.00
  WS02006230WS02006229    1.00   0.00  0.00  0.00  0.94  0.00  0.00  0.06  0.00  0.00
  WS02006231WS02006230    1.00   1.00  0.00  0.00  0.00  0.00  0.00  0.00  0.00  0.00
  WS02006232WS02006231    1.00   1.00  0.00  0.00  0.00  0.00  0.00  0.00  0.00  0.00
  WS02006234WS02006232    1.00   1.00  0.00  0.00  0.00  0.00  0.00  0.00  0.00  0.00
  WS02006235WS02006234    1.00   1.00  0.00  0.00  0.00  0.00  0.00  0.00  0.00  0.00
  WS02006238WS02006235    1.00   1.00  0.00  0.00  0.00  0.00  0.00  0.00  0.00  0.00
  WS02006239WS02006238    1.00   1.00  0.00  0.00  0.00  0.00  0.00  0.00  0.00  0.00
  WS02006240WS02006239    1.00   1.00  0.00  0.00  0.00  0.00  0.00  0.00  0.00  0.00
  WS02006242WS02006240    1.00   1.00  0.00  0.00  0.00  0.00  0.00  0.00  0.00  0.00
  WS02006243WS02006242    1.00   1.00  0.00  0.00  0.00  0.00  0.00  0.00  0.00  0.00
  WS02006245WS02006243    1.00   1.00  0.00  0.00  0.00  0.00  0.00  0.00  0.00  0.00
  WS02006247WS02006245    1.00   1.00  0.00  0.00  0.00  0.00  0.00  0.00  0.00  0.00
  WS02006248WS02006247    1.00   1.00  0.00  0.00  0.00  0.00  0.00  0.00  0.00  0.00
  WS02006249WS02006248    1.00   1.00  0.00  0.00  0.00  0.00  0.00  0.00  0.00  0.00
  WS02006251WS02006249    1.00   1.00  0.00  0.00  0.00  0.00  0.00  0.00  0.00  0.00
  WS02006252WS02006251    1.00   1.00  0.00  0.00  0.00  0.00  0.00  0.00  0.00  0.00
  WS02006256WS02006235    1.00   1.00  0.00  0.00  0.00  0.00  0.00  0.00  0.00  0.00
  WSF200WS02003060        1.00   0.00  0.78  0.00  0.22  0.00  0.00  0.00  0.46  0.00
  YS02001580YS02001583    1.00   0.15  0.41  0.00  0.44  0.00  0.00  0.00  0.72  0.00
  YS02001583YS02001586    1.00   0.27  0.19  0.00  0.53  0.00  0.00  0.00  0.72  0.00
  YS02001586YS02001590    1.00   0.12  0.00  0.00  0.65  0.02  0.00  0.21  0.31  0.00
  YS02001590YS02001593    1.00   0.12  0.00  0.00  0.29  0.00  0.59  0.00  0.00  0.00
  YS02001593YS02001596    1.00   0.12  0.00  0.00  0.33  0.02  0.00  0.53  0.02  0.00
  YS02001596YS02001600    1.00   0.12  0.00  0.00  0.47  0.01  0.00  0.40  0.06  0.00
  YS02001600YS02001601    1.00   0.12  0.00  0.00  0.88  0.00  0.00  0.00  0.60  0.00
  YS02001601YS02001602    1.00   0.12  0.00  0.00  0.88  0.00  0.00  0.00  0.00  0.00
  YS02001602YS02001605    1.00   0.12  0.00  0.00  0.88  0.00  0.00  0.00  0.00  0.00
  YS02001605YS02001607    1.00   0.12  0.00  0.00  0.88  0.00  0.00  0.00  0.00  0.00
  YS02001607YS02001610    1.00   0.12  0.00  0.00  0.88  0.00  0.00  0.00  0.01  0.00
  YS02001610YS02001613    1.00   0.12  0.00  0.00  0.88  0.00  0.00  0.00  0.00  0.00
  YS02001613YS02001616    1.00   0.12  0.00  0.00  0.88  0.00  0.00  0.00  0.00  0.00
  YS02001616YS02001619    1.00   0.12  0.00  0.00  0.88  0.00  0.00  0.00  0.00  0.00
  YS02001619YS02001622    1.00   0.12  0.00  0.00  0.88  0.00  0.00  0.00  0.35  0.00
  YS02001622YS02001625    1.00   0.12  0.00  0.00  0.88  0.00  0.00  0.00  0.03  0.00
  YS02001625YS02001629    1.00   0.12  0.02  0.00  0.39  0.00  0.48  0.00  0.00  0.00
  YS02001629YS02163301    1.00   0.13  0.00  0.00  0.87  0.00  0.00  0.00  0.00  0.00
  YS02001633YS02163601    1.00   0.12  0.00  0.00  0.88  0.00  0.00  0.00  0.01  0.00
  YS02001641YS02001644    1.00   0.12  0.00  0.00  0.88  0.00  0.00  0.00  0.00  0.00
  YS02001644YS02001647    1.00   0.12  0.02  0.00  0.87  0.00  0.00  0.00  0.00  0.00
  YS02001647YS02001649    1.00   0.12  0.01  0.00  0.47  0.39  0.00  0.00  0.59  0.00
  YS02001649YS02001757    1.00   0.03  0.10  0.00  0.51  0.37  0.00  0.00  0.61  0.00
  YS02001652YS02001649    1.00   0.12  0.00  0.00  0.86  0.01  0.00  0.00  0.60  0.00
  YS02001655YS02001652    1.00   0.12  0.00  0.00  0.44  0.04  0.00  0.40  0.12  0.00
  YS02001658YS02001655    1.00   0.12  0.00  0.00  0.48  0.39  0.00  0.00  0.76  0.00
  YS02001661YS02001658    1.00   0.12  0.00  0.00  0.34  0.54  0.00  0.00  0.78  0.00
  YS02001664YS02001661    1.00   0.12  0.00  0.00  0.57  0.32  0.00  0.00  0.85  0.00
  YS02001745YS02001748    1.00   0.12  0.00  0.00  0.11  0.02  0.00  0.75  0.02  0.00
  YS02001748YS02001751    1.00   0.12  0.00  0.00  0.51  0.38  0.00  0.00  0.72  0.00
  YS02001751YS02001754    1.00   0.12  0.00  0.00  0.31  0.03  0.00  0.55  0.07  0.00
  YS02001754YS02001757    1.00   0.03  0.09  0.00  0.88  0.00  0.00  0.00  0.70  0.00
  YS02001757CaochengTiaoxuchi    1.00   0.00  0.03  0.00  0.09  0.88  0.00  0.00  0.15  0.00
  YS02001759YS02001757    1.00   0.03  0.09  0.00  0.88  0.01  0.00  0.00  0.54  0.00
  YS02001762YS02001759    1.00   0.12  0.00  0.00  0.88  0.00  0.00  0.00  0.02  0.00
  YS02001765YS02001762    1.00   0.12  0.00  0.00  0.88  0.00  0.00  0.00  0.60  0.00
  YS02001767YS02001765    1.00   0.12  0.00  0.00  0.88  0.00  0.00  0.00  0.00  0.00
  YS02001770YS02001767    1.00   0.12  0.00  0.00  0.88  0.00  0.00  0.00  0.00  0.00
  YS02001774YS02001770    1.00   0.12  0.00  0.00  0.74  0.00  0.14  0.00  0.01  0.00
  YS02001779YS02001774    1.00   0.12  0.30  0.00  0.58  0.00  0.00  0.00  0.62  0.00
  YS02001783YS02001784    1.00   0.14  0.00  0.00  0.86  0.00  0.00  0.00  0.57  0.00
  YS02001784YS02001785    1.00   0.14  0.00  0.00  0.86  0.00  0.00  0.00  0.43  0.00
  YS02001786YS02001788    1.00   0.14  0.00  0.00  0.49  0.37  0.00  0.00  0.00  0.00
  YS02001788YS02001790    1.00   0.14  0.00  0.00  0.18  0.68  0.00  0.00  0.64  0.00
  YS02001790YS02001791    1.00   0.14  0.00  0.00  0.01  0.85  0.00  0.00  0.16  0.00
  YS02001791YS02001793    1.00   0.14  0.00  0.00  0.00  0.86  0.00  0.00  0.00  0.00
  YS02001793JiankangQianchi    1.00   0.00  0.14  0.00  0.00  0.86  0.00  0.00  0.20  0.00
  YS02001882YS02001884    1.00   0.13  0.00  0.00  0.87  0.00  0.00  0.00  0.00  0.00
  YS02001884YS02001887    1.00   0.12  0.00  0.00  0.87  0.00  0.00  0.00  0.00  0.00
  YS02001887YS02001890    1.00   0.12  0.00  0.00  0.87  0.00  0.01  0.00  0.00  0.00
  YS02001890YS02001895    1.00   0.12  0.01  0.00  0.87  0.00  0.00  0.00  0.00  0.00
  YS02001895YS02001898    1.00   0.13  0.00  0.00  0.86  0.00  0.01  0.00  0.00  0.00
  YS02001898YS02001901    1.00   0.13  0.00  0.00  0.87  0.00  0.00  0.00  0.00  0.00
  YS02001901YS02001904    1.00   0.13  0.00  0.00  0.87  0.00  0.00  0.00  0.00  0.00
  YS02001904YS02001907    1.00   0.12  0.02  0.00  0.87  0.00  0.00  0.00  0.00  0.00
  YS02001907YS02006553    1.00   0.12  0.01  0.00  0.87  0.00  0.00  0.00  0.00  0.00
  YS02001910YS02001907    1.00   0.12  0.00  0.00  0.87  0.00  0.00  0.01  0.01  0.00
  YS02001915YS02001910    1.00   0.12  0.00  0.00  0.87  0.01  0.00  0.00  0.01  0.00
  YS02001918YS02001915    1.00   0.12  0.01  0.00  0.87  0.00  0.00  0.00  0.73  0.00
  YS02001920YS02001918    1.00   0.13  0.01  0.00  0.87  0.00  0.00  0.00  0.00  0.00
  YS02001923YS02001920    1.00   0.12  0.00  0.00  0.88  0.00  0.00  0.00  0.78  0.00
  YS02001926YS02001923    1.00   0.12  0.01  0.00  0.16  0.00  0.72  0.00  0.00  0.00
  YS02001929YS02001926    1.00   0.12  0.00  0.00  0.88  0.00  0.00  0.00  0.81  0.00
  YS02006553YS02006556    1.00   0.12  0.00  0.00  0.88  0.00  0.00  0.00  0.01  0.00
  YS02006556YS02006558    1.00   0.12  0.00  0.00  0.88  0.00  0.00  0.00  0.00  0.00
  YS02006558YS02006561    1.00   0.14  0.00  0.00  0.15  0.72  0.00  0.00  0.17  0.00
  YS02006561YS02001783    1.00   0.14  0.00  0.00  0.31  0.55  0.00  0.00  0.70  0.00
  YS02163301YS02001633    1.00   0.12  0.01  0.00  0.87  0.00  0.00  0.00  0.00  0.00
  YS02163601YS02164001    1.00   0.12  0.00  0.00  0.87  0.00  0.00  0.00  0.01  0.00
  YS02164001YS02001641    1.00   0.12  0.01  0.00  0.88  0.00  0.00  0.00  0.00  0.00
  2                       1.00   0.00  0.00  0.00  0.00  1.00  0.00  0.00  0.21  0.00
  3                       1.00   0.00  0.00  0.00  0.00  1.00  0.00  0.00  0.18  0.00
  4                       1.00   0.00  1.00  0.00  0.00  0.00  0.00  0.00  0.00  0.00
  5                       1.00   0.00  0.00  0.00  0.04  0.96  0.00  0.00  0.27  0.00
  6                       1.00   0.00  0.00  0.00  0.04  0.96  0.00  0.00  0.27  0.00
  7                       1.00   0.00  1.00  0.00  0.00  0.00  0.00  0.00  0.00  0.00
  
  
  *************************
  Conduit Surcharge Summary
  *************************
  
  ----------------------------------------------------------------------------
                                                           Hours        Hours 
                         --------- Hours Full --------   Above Full   Capacity
  Conduit                Both Ends  Upstream  Dnstream   Normal Flow   Limited
  ----------------------------------------------------------------------------
  YS02001580YS02001583        0.67      0.67      0.69      0.01         0.01
  YS02001583YS02001586        0.67      0.67      0.78      0.01         0.01
  YS02001586YS02001590        0.78      0.78      0.85      0.01         0.01
  YS02001590YS02001593        0.85      0.85      0.87      0.98         0.01
  YS02001593YS02001596        0.86      0.86      0.95      0.01         0.01
  YS02001596YS02001600        0.99      0.99      1.12      0.01         0.01
  YS02001600YS02001601        1.20      1.20      1.61      0.01         0.01
  YS02001601YS02001602        1.43      1.43      1.67      1.16         0.01
  YS02001602YS02001605        1.36      1.36      1.43      2.19         0.01
  YS02001605YS02001607        1.30      1.36      1.30      1.54         1.30
  YS02001607YS02001610        0.76      0.76      0.79      0.01         0.01
  YS02001610YS02001613        0.75      0.75      0.79      0.01         0.01
  YS02001613YS02001616        0.70      0.70      0.75      0.01         0.01
  YS02001616YS02001619        0.68      0.68      0.70      0.01         0.01
  YS02001619YS02001622        0.67      0.68      0.67      0.90         0.67
  YS02001622YS02001625        0.67      0.67      0.89      0.01         0.01
  YS02001625YS02001629        0.54      0.54      0.89      0.01         0.01
  YS02001629YS02163301        0.87      0.87      0.88      0.40         0.41
  YS02001633YS02163601        0.90      0.90      0.92      0.55         0.55
  YS02001641YS02001644        0.69      0.77      0.69      1.70         0.69
  YS02001644YS02001647        0.42      0.42      0.69      0.02         0.01
  YS02001647YS02001649        0.42      0.42      0.46      0.01         0.01
  YS02001649YS02001757        0.44      0.46      0.44      0.42         0.32
  YS02001652YS02001649        0.36      0.36      0.46      0.01         0.01
  YS02001655YS02001652        0.26      0.26      0.34      0.01         0.01
  YS02001658YS02001655        0.16      0.16      0.26      0.01         0.01
  YS02001661YS02001658        0.02      0.02      0.16      0.01         0.01
  YS02001664YS02001661        0.01      0.01      0.03      0.01         0.01
  YS02001745YS02001748        0.01      0.01      0.07      0.01         0.01
  YS02001748YS02001751        0.13      0.13      0.18      0.01         0.01
  YS02001751YS02001754        0.18      0.18      0.26      0.01         0.01
  YS02001754YS02001757        0.28      0.28      0.44      0.01         0.01
  YS02001757CaochengTiaoxuchi        0.01      0.44      0.01      0.52         0.01
  YS02001759YS02001757        0.40      0.40      0.44      0.01         0.01
  YS02001762YS02001759        0.38      0.38      0.40      0.01         0.01
  YS02001765YS02001762        0.35      0.35      0.38      0.01         0.01
  YS02001767YS02001765        0.34      0.34      0.35      0.01         0.01
  YS02001770YS02001767        0.34      0.34      0.34      0.60         0.33
  YS02001774YS02001770        0.33      0.33      0.38      0.01         0.01
  YS02001779YS02001774        0.27      0.27      0.38      0.01         0.01
  YS02001783YS02001784        0.52      0.54      0.52      0.67         0.52
  YS02001784YS02001785        0.41      0.52      0.41      0.91         0.41
  YS02001786YS02001788        0.01      0.41      0.01      0.76         0.01
  YS02001790YS02001791        0.01      0.01      0.01      0.51         0.01
  YS02001882YS02001884        0.49      0.49      0.50      0.01         0.01
  YS02001884YS02001887        0.52      0.52      0.53      0.01         0.01
  YS02001887YS02001890        0.55      0.55      0.56      0.11         0.01
  YS02001890YS02001895        0.48      0.48      0.57      0.01         0.01
  YS02001895YS02001898        0.47      0.47      0.48      0.01         0.01
  YS02001898YS02001901        0.48      0.48      0.52      0.01         0.01
  YS02001901YS02001904        0.51      0.51      0.52      0.01         0.01
  YS02001904YS02001907        0.51      0.51      0.74      0.01         0.01
  YS02001907YS02006553        0.91      0.91      0.98      0.01         0.01
  YS02001910YS02001907        0.57      0.57      0.71      0.01         0.01
  YS02001915YS02001910        0.49      0.49      0.57      0.01         0.01
  YS02001918YS02001915        0.40      0.40      0.49      0.01         0.01
  YS02001920YS02001918        0.40      0.40      0.41      0.01         0.01
  YS02001923YS02001920        0.35      0.35      0.41      0.01         0.01
  YS02001926YS02001923        0.03      0.04      0.06      0.01         0.01
  YS02001929YS02001926        0.01      0.01      0.06      0.01         0.01
  YS02006553YS02006556        0.64      0.64      0.74      0.01         0.01
  YS02006556YS02006558        0.69      0.69      0.76      0.01         0.01
  YS02006558YS02006561        0.44      0.64      0.44      0.86         0.44
  YS02006561YS02001783        0.37      0.37      0.54      0.01         0.01
  YS02163301YS02001633        0.88      0.88      0.92      0.01         0.01
  YS02163601YS02164001        0.79      0.79      0.92      0.31         0.01
  YS02164001YS02001641        0.77      0.79      0.77      0.82         0.59
  5                           0.01      0.01      0.01      0.01         0.01
  6                           0.01      0.01      0.01      0.01         0.01
  

  Analysis begun on:  Thu Sep  7 11:20:33 2023
  Analysis ended on:  Thu Sep  7 11:20:59 2023
  Total elapsed time: 00:00:26