
  OWA STORM WATER MANAGEMENT MODEL - VERSION v5.1.14 (OWA 2022-07-31)
  --------------------------------------------------------------

  WARNING 04: minimum elevation drop used for Conduit WS02004404WS02004405
  WARNING 03: negative offset ignored for Link YS02001904YS02001907
  
  *********************************************************
  NOTE: The summary statistics displayed in this report are
  based on results found at every computational time step,  
  not just on results from each reporting time step.
  *********************************************************
  
  ****************
  Analysis Options
  ****************
  Flow Units ............... LPS
  Process Models:
    Rainfall/Runoff ........ YES
    RDII ................... NO
    Snowmelt ............... NO
    Groundwater ............ NO
    Flow Routing ........... YES
    Ponding Allowed ........ NO
    Water Quality .......... NO
  Infiltration Method ...... HORTON
  Flow Routing Method ...... DYNWAVE
  Surcharge Method ......... EXTRAN
  Starting Date ............ 08/28/2015 08:00:00
  Ending Date .............. 08/28/2015 16:00:00
  Antecedent Dry Days ...... 8.0
  Report Time Step ......... 00:01:00
  Wet Time Step ............ 00:01:00
  Dry Time Step ............ 00:01:00
  Routing Time Step ........ 30.00 sec
  Variable Time Step ....... YES
  Maximum Trials ........... 8
  Number of Threads ........ 4
  Head Tolerance ........... 0.001500 m
  
  
  **************************        Volume         Depth
  Runoff Quantity Continuity     hectare-m            mm
  **************************     ---------       -------
  Initial LID Storage ......         0.049         1.488
  Total Precipitation ......         6.147       185.324
  Evaporation Loss .........         0.000         0.000
  Infiltration Loss ........         0.083         2.508
  Surface Runoff ...........         5.275       159.031
  Final Storage ............         0.840        25.313
  Continuity Error (%) .....        -0.022
  
  
  **************************        Volume        Volume
  Flow Routing Continuity        hectare-m      10^6 ltr
  **************************     ---------     ---------
  Dry Weather Inflow .......         0.025         0.251
  Wet Weather Inflow .......         5.275        52.748
  Groundwater Inflow .......         0.000         0.000
  RDII Inflow ..............         0.000         0.000
  External Inflow ..........         0.083         0.834
  External Outflow .........         2.503        25.031
  Flooding Loss ............         3.104        31.040
  Evaporation Loss .........         0.000         0.000
  Exfiltration Loss ........         0.000         0.000
  Initial Stored Volume ....         0.248         2.479
  Final Stored Volume ......         0.033         0.332
  Continuity Error (%) .....        -0.164
  
  
  *************************
  Highest Continuity Errors
  *************************
  Node WS02006242 (9.87%)
  Node WS02004406 (8.71%)
  Node WS02004413 (6.51%)
  Node WS02006249 (5.66%)
  Node WS02004405 (5.17%)
  
  
  ***************************
  Time-Step Critical Elements
  ***************************
  Link 3 (98.18%)
  
  
  ********************************
  Highest Flow Instability Indexes
  ********************************
  Link YS02006558YS02006561 (9)
  Link YS02001580YS02001583 (7)
  Link YS02001607YS02001610 (7)
  Link YS02001602YS02001605 (7)
  Link YS02001605YS02001607 (6)
  
  
  *************************
  Routing Time Step Summary
  *************************
  Minimum Time Step           :     0.00 sec
  Average Time Step           :     1.69 sec
  Maximum Time Step           :     5.22 sec
  Percent in Steady State     :    -0.00
  Average Iterations per Step :     2.58
  Percent Not Converging      :     6.42
  
  
  ***************************
  Subcatchment Runoff Summary
  ***************************
  
  ------------------------------------------------------------------------------------------------------------------------------
                            Total      Total      Total      Total     Imperv       Perv      Total       Total     Peak  Runoff
                           Precip      Runon       Evap      Infil     Runoff     Runoff     Runoff      Runoff   Runoff   Coeff
  Subcatchment                 mm         mm         mm         mm         mm         mm         mm    10^6 ltr      LPS
  ------------------------------------------------------------------------------------------------------------------------------
  sub60                    232.27       0.00       0.00       1.47     156.85      20.04     199.34        2.62  2193.82   0.858
  sub61                    232.27       0.00       0.00       2.28     156.71      30.01     204.67        3.76  3054.59   0.881
  sub62                    232.27       0.00       0.00       1.00     167.10      13.62     201.72        5.53  4460.07   0.868
  sub63                    232.27       0.00       0.00       4.20     134.22      50.94     203.02        4.61  3645.42   0.874
  sub64                    232.27       0.00       0.00       2.01     152.89      25.13     199.77        4.80  3809.15   0.860
  sub65                    232.27       0.00       0.00       1.85     165.05      22.97     205.56        5.66  4284.38   0.885
  sub66                    232.27       0.00       0.00       4.97     129.94      48.44     198.76        9.27  6514.63   0.856
  sub67                     51.25       0.00       0.00       0.91      37.00       2.40      39.39        0.73   514.86   0.769
  sub68                     51.25       0.00       0.00       1.58      32.67       3.89      36.56        1.01   645.06   0.713
  sub69                    232.27       0.00       0.00       1.65     156.38      25.96     202.77        7.51  5754.82   0.873
  sub70                    232.27       0.00       0.00       5.64     125.40      59.02     202.26        5.84  3750.76   0.871
  sub71                     51.25       0.00       0.00       0.84      32.78       2.09      34.87        0.91   531.79   0.680
  sub72                     51.25       0.00       0.00       0.80      35.40       1.94      37.34        0.51   270.10   0.729
  

  ***********************
  LID Performance Summary
  ***********************

  --------------------------------------------------------------------------------------------------------------------
                                         Total      Evap     Infil   Surface    Drain    Initial     Final  Continuity
                                        Inflow      Loss      Loss   Outflow   Outflow   Storage   Storage       Error
  Subcatchment      LID Control             mm        mm        mm        mm        mm        mm        mm           %
  --------------------------------------------------------------------------------------------------------------------
  sub60             GreenRoof           232.27      0.00      0.00     98.36      0.00      7.05    140.96        0.00
  sub61             GreenRoof           232.27      0.00      0.00     98.36      0.00      7.05    140.96        0.00
  sub62             GreenRoof           232.27      0.00      0.00     98.36      0.00      7.05    140.96        0.00
  sub63             GreenRoof           232.27      0.00      0.00     98.36      0.00      7.05    140.96        0.00
  sub64             GreenRoof           232.27      0.00      0.00     98.36      0.00      7.05    140.96        0.00
  sub65             GreenRoof           232.27      0.00      0.00     98.36      0.00      7.05    140.96        0.00
  sub66             GreenRoof           232.27      0.00      0.00     98.36      0.00      7.05    140.96        0.00
  sub67             GreenRoof            51.25      0.00      0.00      0.00      0.00      7.05     58.34       -0.08
  sub68             GreenRoof            51.25      0.00      0.00      0.00      0.00      7.05     58.34       -0.08
  sub69             GreenRoof           232.27      0.00      0.00     98.36      0.00      7.05    140.96        0.00
  sub70             GreenRoof           232.27      0.00      0.00     98.36      0.00      7.05    140.96        0.00
  sub71             GreenRoof            51.25      0.00      0.00      0.00      0.00      7.05     58.34       -0.08
  sub72             GreenRoof            51.25      0.00      0.00      0.00      0.00      7.05     58.34       -0.08
  
  ******************
  Node Depth Summary
  ******************
  
  ---------------------------------------------------------------------------------
                                 Average  Maximum  Maximum  Time of Max    Reported
                                   Depth    Depth      HGL   Occurrence   Max Depth
  Node                 Type       Meters   Meters   Meters  days hr:min      Meters
  ---------------------------------------------------------------------------------
  WS02003060           JUNCTION     0.07     0.09     5.02     0  06:04        0.09
  WS02003066           JUNCTION     0.02     0.09     5.65     0  05:00        0.09
  WS02003067           JUNCTION     0.09     0.33     5.65     0  04:59        0.33
  WS02003069           JUNCTION     0.08     0.10     4.68     0  06:55        0.10
  WS02003072           JUNCTION     0.13     0.15     4.52     0  07:43        0.15
  WS02003073           JUNCTION     0.06     0.07     4.14     0  07:45        0.07
  WS02004401           JUNCTION     0.26     0.36     6.36     0  04:44        0.36
  WS02004402           JUNCTION     0.29     0.40     6.36     0  04:28        0.40
  WS02004403           JUNCTION     0.32     0.43     6.36     0  04:21        0.43
  WS02004404           JUNCTION     0.39     0.51     6.36     0  04:20        0.51
  WS02004405           JUNCTION     0.39     0.51     6.36     0  04:24        0.51
  WS02004406           JUNCTION     0.41     0.53     6.36     0  04:41        0.53
  WS02004407           JUNCTION     0.02     0.05     6.36     0  05:14        0.05
  WS02004409           JUNCTION     0.05     0.12     5.89     0  05:45        0.12
  WS02004410           JUNCTION     0.06     0.17     5.89     0  05:06        0.17
  WS02004411           JUNCTION     0.07     0.20     5.88     0  04:42        0.20
  WS02004412           JUNCTION     0.08     0.24     5.88     0  04:31        0.24
  WS02004413           JUNCTION     0.14     0.41     5.88     0  04:45        0.41
  WS02006109           JUNCTION     0.33     0.35     6.96     0  03:26        0.35
  WS02006110           JUNCTION     0.36     0.38     6.96     0  03:52        0.38
  WS02006111           JUNCTION     0.05     0.05     6.76     0  04:33        0.05
  WS02006112           JUNCTION     0.39     0.48     6.36     0  05:48        0.48
  WS02006113           JUNCTION     0.06     0.07     6.96     0  04:33        0.07
  WS02006115           JUNCTION     0.15     0.22     6.36     0  05:22        0.22
  WS02006116           JUNCTION     0.22     0.32     6.36     0  04:55        0.32
  WS02006228           JUNCTION     0.30     0.31     6.96     0  02:57        0.31
  WS02006229           JUNCTION     0.26     0.27     6.96     0  02:41        0.27
  WS02006230           JUNCTION     0.21     0.22     6.97     0  03:03        0.22
  WS02006231           JUNCTION     0.00     0.00     7.12     0  00:00        0.00
  WS02006232           JUNCTION     0.00     0.00     7.04     0  00:00        0.00
  WS02006234           JUNCTION     0.00     0.00     7.16     0  00:00        0.00
  WS02006235           JUNCTION     0.01     0.01     7.17     0  08:00        0.01
  WS02006238           JUNCTION     0.02     0.03     7.17     0  08:00        0.03
  WS02006239           JUNCTION     0.01     0.01     7.22     0  01:58        0.01
  WS02006240           JUNCTION     0.01     0.01     7.31     0  08:00        0.01
  WS02006242           JUNCTION     0.03     0.04     7.31     0  08:00        0.04
  WS02006243           JUNCTION     0.01     0.01     7.43     0  01:26        0.01
  WS02006245           JUNCTION     0.01     0.01     7.50     0  08:00        0.01
  WS02006247           JUNCTION     0.01     0.02     7.52     0  01:01        0.02
  WS02006248           JUNCTION     0.01     0.01     7.60     0  00:39        0.01
  WS02006249           JUNCTION     0.02     0.02     7.62     0  08:00        0.02
  WS02006251           JUNCTION     0.01     0.01     7.68     0  00:06        0.01
  WS02006252           JUNCTION     0.00     0.00     8.24     0  00:00        0.00
  WS02006256           JUNCTION     0.00     0.00     6.94     0  08:00        0.00
  WSF200               JUNCTION     0.01     0.05     5.28     0  05:12        0.05
  YS02001580           JUNCTION     0.32     1.05     9.59     0  01:33        0.78
  YS02001583           JUNCTION     0.36     1.11     9.60     0  01:33        0.82
  YS02001586           JUNCTION     0.52     1.13     9.30     0  01:33        1.13
  YS02001590           JUNCTION     0.67     1.39     9.25     0  01:56        1.39
  YS02001593           JUNCTION     0.60     1.31     9.18     0  01:33        1.28
  YS02001596           JUNCTION     0.79     1.68     9.10     0  01:33        1.65
  YS02001600           JUNCTION     0.91     1.87     9.00     0  01:33        1.87
  YS02001601           JUNCTION     1.10     2.06     8.90     0  01:32        2.06
  YS02001602           JUNCTION     0.97     1.87     8.77     0  01:42        1.87
  YS02001605           JUNCTION     0.90     1.78     8.68     0  01:47        1.78
  YS02001607           JUNCTION     0.83     1.66     8.51     0  01:51        1.66
  YS02001610           JUNCTION     0.87     1.68     8.48     0  01:44        1.68
  YS02001613           JUNCTION     0.83     1.68     8.52     0  01:56        1.68
  YS02001616           JUNCTION     0.77     1.61     8.52     0  02:07        1.61
  YS02001619           JUNCTION     0.75     1.61     8.54     0  01:51        1.61
  YS02001622           JUNCTION     0.73     1.57     8.48     0  02:01        1.57
  YS02001625           JUNCTION     0.96     1.78     8.38     0  01:45        1.78
  YS02001629           JUNCTION     0.90     1.85     8.40     0  01:48        1.85
  YS02001633           JUNCTION     0.98     2.08     8.53     0  02:07        2.08
  YS02001641           JUNCTION     0.91     2.03     8.47     0  02:28        2.03
  YS02001644           JUNCTION     0.89     1.92     8.35     0  01:51        1.92
  YS02001647           JUNCTION     0.66     1.79     8.40     0  02:07        1.79
  YS02001649           JUNCTION     0.73     2.05     8.44     0  02:07        2.05
  YS02001652           JUNCTION     0.61     2.16     8.76     0  02:09        2.16
  YS02001655           JUNCTION     0.50     2.20     9.05     0  02:09        2.20
  YS02001658           JUNCTION     0.42     2.30     9.44     0  01:52        2.30
  YS02001661           JUNCTION     0.41     2.46     9.86     0  02:09        2.46
  YS02001664           JUNCTION     0.26     2.31    10.23     0  02:09        2.31
  YS02001745           JUNCTION     0.24     2.35     9.87     0  02:09        2.35
  YS02001748           JUNCTION     0.35     2.27     9.35     0  02:09        2.27
  YS02001751           JUNCTION     0.41     2.20     9.08     0  02:09        2.20
  YS02001754           JUNCTION     0.52     2.20     8.81     0  02:09        2.20
  YS02001757           JUNCTION     0.74     2.21     8.47     0  02:09        2.20
  YS02001759           JUNCTION     0.68     2.21     8.57     0  02:08        2.21
  YS02001762           JUNCTION     0.67     2.15     8.55     0  02:08        2.15
  YS02001765           JUNCTION     0.64     2.10     8.55     0  02:09        2.10
  YS02001767           JUNCTION     0.63     2.01     8.50     0  02:09        2.01
  YS02001770           JUNCTION     0.64     1.95     8.44     0  02:03        1.95
  YS02001774           JUNCTION     0.70     2.05     8.47     0  02:28        2.00
  YS02001779           JUNCTION     0.50     1.68     8.37     0  01:48        1.68
  YS02001783           JUNCTION     0.28     1.48     7.62     0  01:49        1.24
  YS02001784           JUNCTION     0.29     1.24     7.30     0  01:49        1.11
  YS02001786           JUNCTION     0.24     0.96     6.99     0  01:49        0.88
  YS02001788           JUNCTION     0.18     0.62     6.60     0  01:50        0.61
  YS02001790           JUNCTION     0.21     0.71     6.35     0  01:51        0.70
  YS02001791           JUNCTION     0.13     0.44     5.91     0  01:57        0.42
  YS02001793           JUNCTION     0.07     0.22     5.05     0  01:58        0.22
  YS02001882           JUNCTION     0.34     1.83     8.55     0  01:48        1.62
  YS02001884           JUNCTION     0.43     1.89     8.51     0  01:48        1.71
  YS02001887           JUNCTION     0.50     1.91     8.44     0  01:48        1.79
  YS02001890           JUNCTION     0.53     1.81     8.32     0  01:48        1.81
  YS02001895           JUNCTION     0.31     1.75     8.50     0  01:48        1.56
  YS02001898           JUNCTION     0.32     1.77     8.51     0  01:48        1.55
  YS02001901           JUNCTION     0.42     1.83     8.43     0  01:48        1.67
  YS02001904           JUNCTION     0.40     1.77     8.40     0  01:48        1.63
  YS02001907           JUNCTION     0.71     1.96     8.25     0  01:48        1.96
  YS02001910           JUNCTION     0.52     2.04     8.54     0  01:48        1.88
  YS02001915           JUNCTION     0.34     2.00     8.72     0  01:48        1.71
  YS02001918           JUNCTION     0.17     1.81     8.88     0  01:50        1.40
  YS02001920           JUNCTION     0.26     2.10     9.11     0  01:50        1.44
  YS02001923           JUNCTION     0.13     2.03     9.29     0  01:50        1.21
  YS02001926           JUNCTION     0.17     1.90     9.35     0  01:50        1.03
  YS02001929           JUNCTION     0.09     1.78     9.47     0  01:50        0.79
  YS02006553           JUNCTION     0.72     2.05     8.33     0  01:49        1.96
  YS02006556           JUNCTION     0.69     2.12     8.43     0  01:49        1.94
  YS02006558           JUNCTION     0.73     2.18     8.45     0  01:49        1.97
  YS02006561           JUNCTION     0.17     1.29     7.95     0  01:49        0.90
  YS02163301           JUNCTION     0.92     1.95     8.47     0  02:09        1.95
  YS02163601           JUNCTION     0.99     2.08     8.47     0  02:18        2.07
  YS02164001           JUNCTION     0.91     2.03     8.49     0  02:28        2.03
  CC-1                 OUTFALL      0.11     0.73     0.73     0  00:00        0.38
  CC-2                 OUTFALL      0.11     0.73     0.73     0  00:00        0.38
  JK-1                 OUTFALL      0.07     1.00     1.00     0  00:00        0.20
  JK-2                 OUTFALL      0.07     1.00     1.00     0  00:00        0.20
  WSC                  OUTFALL      0.06     0.07     0.74     0  07:45        0.07
  CC-storage           STORAGE      0.12     0.80     6.30     0  00:00        0.38
  JK-storage           STORAGE      0.07     3.00     3.80     0  00:00        0.20
  
  
  *******************
  Node Inflow Summary
  *******************
  
  -------------------------------------------------------------------------------------------------
                                  Maximum  Maximum                  Lateral       Total        Flow
                                  Lateral    Total  Time of Max      Inflow      Inflow     Balance
                                   Inflow   Inflow   Occurrence      Volume      Volume       Error
  Node                 Type           LPS      LPS  days hr:min    10^6 ltr    10^6 ltr     Percent
  -------------------------------------------------------------------------------------------------
  WS02003060           JUNCTION     16.53    28.24     0  05:14       0.476       0.648       0.306
  WS02003066           JUNCTION      0.00    11.71     0  04:46           0       0.173       0.656
  WS02003067           JUNCTION      0.00    11.71     0  04:49           0       0.177       2.316
  WS02003069           JUNCTION      0.32    28.56     0  06:06     0.00922       0.655       0.521
  WS02003072           JUNCTION      0.00    28.56     0  06:55           0       0.651       0.949
  WS02003073           JUNCTION      1.82    30.38     0  07:43      0.0524       0.698       0.697
  WS02004401           JUNCTION      0.00    11.55     0  01:26           0       0.273       3.725
  WS02004402           JUNCTION      0.00    11.54     0  04:12           0       0.263       3.970
  WS02004403           JUNCTION      0.00    11.64     0  01:16           0       0.253       4.015
  WS02004404           JUNCTION      0.16    11.79     0  03:58     0.00467       0.248       3.371
  WS02004405           JUNCTION      0.04    11.86     0  03:57      0.0011       0.241       5.457
  WS02004406           JUNCTION      0.00    11.75     0  04:09           0       0.228       9.537
  WS02004407           JUNCTION      0.00    11.71     0  04:53           0       0.208       0.483
  WS02004409           JUNCTION      0.00    11.71     0  05:14           0       0.207       1.086
  WS02004410           JUNCTION      0.00    11.71     0  04:42           0       0.205       1.906
  WS02004411           JUNCTION      0.00    11.74     0  04:18           0       0.201       2.583
  WS02004412           JUNCTION      0.00    11.84     0  04:09           0       0.196       3.672
  WS02004413           JUNCTION      0.00    12.01     0  04:07           0       0.189       6.960
  WS02006109           JUNCTION      1.23    11.51     0  02:21      0.0354        0.32       3.069
  WS02006110           JUNCTION      0.00    11.51     0  03:02           0        0.31       2.710
  WS02006111           JUNCTION      0.00    11.51     0  04:33           0       0.301       0.183
  WS02006112           JUNCTION      0.00    11.51     0  04:21           0         0.3       4.865
  WS02006113           JUNCTION      0.00    11.51     0  03:42           0       0.302       0.389
  WS02006115           JUNCTION      0.00    11.82     0  01:53           0       0.287       2.336
  WS02006116           JUNCTION      0.00    12.06     0  01:53           0        0.28       2.659
  WS02006228           JUNCTION      0.00    10.28     0  01:59           0        0.29       1.978
  WS02006229           JUNCTION      0.00    10.54     0  00:16           0       0.293       1.040
  WS02006230           JUNCTION     10.28    10.28     0  00:00       0.296       0.296       0.998
  WS02006231           JUNCTION      0.00     0.00     0  00:00           0           0       0.000 ltr
  WS02006232           JUNCTION      0.00     0.00     0  00:00           0           0       0.000 ltr
  WS02006234           JUNCTION      0.00     0.00     0  00:00           0           0       0.000 ltr
  WS02006235           JUNCTION      0.00     0.08     0  08:00           0     0.00163       0.634
  WS02006238           JUNCTION      0.00     0.08     0  08:00           0     0.00167       2.308
  WS02006239           JUNCTION      0.00     0.08     0  08:00           0     0.00169       1.272
  WS02006240           JUNCTION      0.00     0.08     0  08:00           0     0.00175       3.576
  WS02006242           JUNCTION      0.00     0.09     0  01:31           0     0.00194      10.948
  WS02006243           JUNCTION      0.00     0.08     0  07:59           0     0.00197       1.224
  WS02006245           JUNCTION      0.00     0.08     0  07:58           0     0.00202       2.778
  WS02006247           JUNCTION      0.00     0.08     0  07:59           0     0.00207       2.282
  WS02006248           JUNCTION      0.00     0.08     0  07:54           0     0.00208       0.717
  WS02006249           JUNCTION      0.00     0.09     0  00:08           0     0.00221       5.999
  WS02006251           JUNCTION      0.08     0.08     0  00:00     0.00222     0.00222       0.535
  WS02006252           JUNCTION      0.00     0.00     0  00:00           0           0       0.000 ltr
  WS02006256           JUNCTION      0.00     0.08     0  08:00           0     0.00162       0.401
  WSF200               JUNCTION      0.00    11.71     0  05:00           0       0.172       0.251
  YS02001580           JUNCTION      0.00    57.30     0  01:33           0     0.00411       1.061
  YS02001583           JUNCTION      0.00    86.59     0  01:33           0      0.0159      -2.330
  YS02001586           JUNCTION   3750.76  3750.76     0  02:13        5.84        5.86       0.014
  YS02001590           JUNCTION      0.00   317.77     0  01:51           0        2.14      -0.043
  YS02001593           JUNCTION      0.00   317.76     0  01:46           0        2.14       0.003
  YS02001596           JUNCTION      0.00   317.79     0  01:46           0        2.14      -0.005
  YS02001600           JUNCTION      0.00   317.81     0  01:46           0        2.14       0.013
  YS02001601           JUNCTION   5754.82  6072.33     0  02:13        7.51        9.65       0.008
  YS02001602           JUNCTION      0.00   511.27     0  03:00           0         3.2       0.013
  YS02001605           JUNCTION      0.00   511.38     0  03:00           0        2.96       0.017
  YS02001607           JUNCTION      0.00   511.48     0  03:00           0        2.96       0.058
  YS02001610           JUNCTION      0.00   953.11     0  02:09           0        4.35       0.052
  YS02001613           JUNCTION      0.00   617.10     0  02:09           0        3.21       0.050
  YS02001616           JUNCTION      0.00   617.20     0  02:09           0        3.21       0.009
  YS02001619           JUNCTION   6514.63  6514.63     0  02:13        9.27        11.1      -0.003
  YS02001622           JUNCTION      0.00  1053.24     0  02:22           0        6.66      -0.003
  YS02001625           JUNCTION      0.00  1505.02     0  02:27           0         7.6       0.121
  YS02001629           JUNCTION      0.00  1138.20     0  02:18           0        5.55       0.018
  YS02001633           JUNCTION   4284.58  4284.58     0  02:13        5.66        9.54       0.035
  YS02001641           JUNCTION      0.00  1356.74     0  01:44           0        7.04       0.039
  YS02001644           JUNCTION   3809.19  5560.64     0  02:13         4.8        12.5       0.024
  YS02001647           JUNCTION      0.00  1714.61     0  01:44           0        8.23       0.007
  YS02001649           JUNCTION      0.00  2689.69     0  02:13           0        11.9       0.005
  YS02001652           JUNCTION      0.00  2428.58     0  02:16           0        4.34      -0.040
  YS02001655           JUNCTION      0.15  2731.44     0  02:15     0.00443        4.45       0.017
  YS02001658           JUNCTION      0.00  2783.08     0  02:15           0        4.46      -0.009
  YS02001661           JUNCTION      0.00  2783.08     0  02:15           0        4.46       0.011
  YS02001664           JUNCTION   3645.42  3645.42     0  02:13        4.61        4.61      -0.005
  YS02001745           JUNCTION   2193.83  2193.83     0  02:13        2.62        2.62       0.018
  YS02001748           JUNCTION      0.04  2194.07     0  02:13      0.0013        2.62      -0.027
  YS02001751           JUNCTION      0.01  2194.42     0  02:13    0.000317        2.62       0.018
  YS02001754           JUNCTION      0.26  2194.32     0  02:13     0.00749        2.63      -0.050
  YS02001757           JUNCTION      0.00  3745.73     0  02:13           0        18.8       0.002
  YS02001759           JUNCTION   3054.63  3054.63     0  02:13        3.76        6.17      -0.007
  YS02001762           JUNCTION      0.00   777.56     0  02:29           0        2.78      -0.004
  YS02001765           JUNCTION      0.00   776.99     0  02:29           0        2.78      -0.005
  YS02001767           JUNCTION      0.54   776.94     0  02:29      0.0154        2.78      -0.008
  YS02001770           JUNCTION   4460.22  5178.03     0  02:13        5.53        5.94      -0.011
  YS02001774           JUNCTION      0.00   851.41     0  02:18           0        1.33       0.066
  YS02001779           JUNCTION      0.01   851.29     0  02:18    0.000144        1.28      -0.016
  YS02001783           JUNCTION      0.00  1151.24     0  01:50           0        2.96       0.005
  YS02001784           JUNCTION      1.06  1152.34     0  01:50      0.0305        2.99       0.014
  YS02001786           JUNCTION      0.06  1152.30     0  01:50     0.00162        2.99       0.016
  YS02001788           JUNCTION      0.07  1152.93     0  01:50     0.00204        2.99       0.009
  YS02001790           JUNCTION      0.15  1166.25     0  01:50     0.00446           3       0.047
  YS02001791           JUNCTION      0.00  1259.04     0  01:51           0           3      -0.028
  YS02001793           JUNCTION      0.00  1214.00     0  01:58           0           3       0.004
  YS02001882           JUNCTION      0.00   117.45     0  01:48           0      0.0123       3.553
  YS02001884           JUNCTION      0.00   142.76     0  01:48           0      0.0476       4.964
  YS02001887           JUNCTION    515.31   515.31     0  01:50       0.746       0.779       0.559
  YS02001890           JUNCTION      0.00   516.74     0  01:48           0       0.739       0.677
  YS02001895           JUNCTION      0.00   521.21     0  01:48           0       0.732       0.190
  YS02001898           JUNCTION      0.00   519.95     0  01:48           0       0.731      -0.053
  YS02001901           JUNCTION      0.00   528.39     0  01:49           0       0.734       0.416
  YS02001904           JUNCTION      0.00   529.51     0  01:48           0       0.739       0.360
  YS02001907           JUNCTION      0.00  1473.75     0  01:51           0        2.24       0.793
  YS02001910           JUNCTION      0.00   982.82     0  01:51           0        1.51       0.463
  YS02001915           JUNCTION    531.81   982.56     0  01:51       0.912        1.56       0.066
  YS02001918           JUNCTION      0.00   549.88     0  01:49           0       0.676      -0.073
  YS02001920           JUNCTION      2.87   527.34     0  01:49      0.0827       0.653       0.094
  YS02001923           JUNCTION      0.04   681.17     0  01:49     0.00109       0.554      -0.120
  YS02001926           JUNCTION      0.05   943.71     0  01:49      0.0015       0.534      -0.070
  YS02001929           JUNCTION    270.10   749.08     0  01:50       0.513       0.519      -0.097
  YS02006553           JUNCTION      0.00   790.12     0  02:02           0        1.98       0.577
  YS02006556           JUNCTION      0.00   790.32     0  02:02           0        1.99       0.398
  YS02006558           JUNCTION    645.94  1162.93     0  01:49        1.03        2.99       0.117
  YS02006561           JUNCTION      0.00  1162.64     0  01:49           0        2.96      -0.007
  YS02163301           JUNCTION      0.00  1138.20     0  02:18           0        5.55       0.028
  YS02163601           JUNCTION      0.11  1357.55     0  01:44     0.00317        7.04       0.071
  YS02164001           JUNCTION      0.00  1357.33     0  01:44           0        7.04       0.032
  CC-1                 OUTFALL       0.00 16161.72     0  00:00           0        10.3       0.000
  CC-2                 OUTFALL       0.00 17045.67     0  00:00           0        10.7       0.000
  JK-1                 OUTFALL       0.00  8590.66     0  00:00           0        1.61       0.000
  JK-2                 OUTFALL       0.00  8788.77     0  00:00           0        1.64       0.000
  WSC                  OUTFALL       0.00    30.38     0  07:45           0       0.693       0.000
  CC-storage           STORAGE       0.00  3491.10     0  02:12           0          21      -0.286
  JK-storage           STORAGE       0.00  1243.72     0  01:58           0        3.15      -3.189
  
  
  **********************
  Node Surcharge Summary
  **********************
  
  Surcharging occurs when water rises above the top of the highest conduit.
  ---------------------------------------------------------------------
                                               Max. Height   Min. Depth
                                   Hours       Above Crown    Below Rim
  Node                 Type      Surcharged         Meters       Meters
  ---------------------------------------------------------------------
  YS02001580           JUNCTION        1.42          0.450        0.000
  YS02001583           JUNCTION        1.43          0.467        0.033
  YS02001586           JUNCTION        1.52          0.510        0.000
  YS02001590           JUNCTION        1.60          0.736        0.014
  YS02001593           JUNCTION        1.60          0.693        0.147
  YS02001596           JUNCTION        1.71          0.947        0.123
  YS02001600           JUNCTION        1.82          1.190        0.000
  YS02001601           JUNCTION        2.04          1.440        0.000
  YS02001602           JUNCTION        1.97          1.270        0.000
  YS02001605           JUNCTION        1.94          1.180        0.000
  YS02001607           JUNCTION        1.53          0.665        0.015
  YS02001610           JUNCTION        1.56          0.680        0.000
  YS02001613           JUNCTION        1.53          0.676        0.024
  YS02001616           JUNCTION        1.49          0.610        0.000
  YS02001619           JUNCTION        1.48          0.610        0.000
  YS02001622           JUNCTION        1.47          0.575        0.045
  YS02001625           JUNCTION        1.64          0.780        0.000
  YS02001629           JUNCTION        1.30          0.470        0.000
  YS02001633           JUNCTION        1.64          1.060        0.000
  YS02001641           JUNCTION        1.54          1.033        0.067
  YS02001644           JUNCTION        1.48          0.920        0.000
  YS02001647           JUNCTION        1.04          0.792        0.108
  YS02001649           JUNCTION        1.09          1.050        0.000
  YS02001652           JUNCTION        0.92          1.130        0.000
  YS02001655           JUNCTION        0.80          1.200        0.000
  YS02001658           JUNCTION        0.65          1.300        0.000
  YS02001661           JUNCTION        0.40          1.390        0.000
  YS02001664           JUNCTION        0.23          1.310        0.000
  YS02001745           JUNCTION        0.19          1.350        0.000
  YS02001748           JUNCTION        0.51          1.190        0.000
  YS02001751           JUNCTION        0.69          1.200        0.000
  YS02001754           JUNCTION        0.81          1.150        0.000
  YS02001757           JUNCTION        1.05          1.210        0.000
  YS02001759           JUNCTION        0.98          1.210        0.000
  YS02001762           JUNCTION        0.97          1.150        0.000
  YS02001765           JUNCTION        0.94          1.100        0.000
  YS02001767           JUNCTION        0.93          1.013        0.017
  YS02001770           JUNCTION        0.92          0.920        0.000
  YS02001774           JUNCTION        0.98          1.050        0.000
  YS02001779           JUNCTION        0.83          0.680        0.000
  YS02001783           JUNCTION        0.34          0.680        0.920
  YS02001784           JUNCTION        0.32          0.436        1.054
  YS02001786           JUNCTION        0.23          0.155        1.275
  YS02001882           JUNCTION        0.30          0.830        0.000
  YS02001884           JUNCTION        0.31          0.829        0.041
  YS02001887           JUNCTION        0.33          0.857        0.093
  YS02001890           JUNCTION        0.35          0.760        0.000
  YS02001895           JUNCTION        0.29          0.750        0.000
  YS02001898           JUNCTION        0.28          0.740        0.000
  YS02001901           JUNCTION        0.33          0.825        0.045
  YS02001904           JUNCTION        0.32          0.769        0.081
  YS02001907           JUNCTION        0.50          0.950        0.000
  YS02001910           JUNCTION        0.37          1.037        0.063
  YS02001915           JUNCTION        0.29          1.000        0.000
  YS02001918           JUNCTION        0.22          0.810        0.000
  YS02001920           JUNCTION        0.23          1.104        0.036
  YS02001923           JUNCTION        0.01          0.820        0.000
  YS02001926           JUNCTION        0.01          0.900        0.000
  YS02001929           JUNCTION        0.01          0.780        0.000
  YS02006553           JUNCTION        0.51          1.051        0.139
  YS02006556           JUNCTION        0.44          1.081        0.269
  YS02006558           JUNCTION        0.43          1.080        0.320
  YS02006561           JUNCTION        0.19          0.485        0.665
  YS02163301           JUNCTION        1.63          0.953        0.077
  YS02163601           JUNCTION        1.67          1.076        0.004
  YS02164001           JUNCTION        1.56          1.034        0.066
  
  
  *********************
  Node Flooding Summary
  *********************
  
  Flooding refers to all water that overflows a node, whether it ponds or not.
  --------------------------------------------------------------------------
                                                             Total   Maximum
                                 Maximum   Time of Max       Flood    Ponded
                        Hours       Rate    Occurrence      Volume     Depth
  Node                 Flooded       LPS   days hr:min    10^6 ltr    Meters
  --------------------------------------------------------------------------
  YS02001580              0.01     25.29      0  01:33       0.000     0.000
  YS02001586              1.25   3432.65      0  02:13       3.704     0.000
  YS02001600              0.01      0.77      0  01:33       0.000     0.000
  YS02001601              1.46   5673.77      0  02:13       6.443     0.000
  YS02001602              1.11     61.91      0  01:48       0.237     0.000
  YS02001605              0.01      0.09      0  01:47       0.000     0.000
  YS02001610              1.05    952.97      0  02:09       2.534     0.000
  YS02001616              0.01      0.51      0  02:07       0.000     0.000
  YS02001619              0.46   4844.04      0  02:13       3.028     0.000
  YS02001625              0.94   1505.02      0  02:27       3.713     0.000
  YS02001629              0.49    686.41      0  02:13       0.736     0.000
  YS02001633              0.22   2240.97      0  02:13       0.832     0.000
  YS02001644              0.62   5560.19      0  02:13       4.902     0.000
  YS02001649              0.18   1842.95      0  02:13       0.742     0.000
  YS02001652              0.01      0.15      0  02:09       0.000     0.000
  YS02001655              0.12    302.86      0  02:15       0.111     0.000
  YS02001658              0.09    229.46      0  01:52       0.016     0.000
  YS02001661              0.01      0.47      0  02:09       0.000     0.000
  YS02001664              0.09    861.95      0  02:13       0.145     0.000
  YS02001745              0.01      1.42      0  02:09       0.000     0.000
  YS02001748              0.01      0.32      0  02:09       0.000     0.000
  YS02001754              0.01      0.17      0  02:09       0.000     0.000
  YS02001757              0.01     14.45      0  02:09       0.000     0.000
  YS02001759              0.10    786.16      0  02:13       0.133     0.000
  YS02001762              0.01      1.50      0  02:09       0.000     0.000
  YS02001765              0.01      0.17      0  02:09       0.000     0.000
  YS02001770              0.32   4326.37      0  02:13       2.241     0.000
  YS02001774              0.01      4.64      0  02:28       0.000     0.000
  YS02001779              0.56    851.23      0  02:18       1.262     0.000
  YS02001882              0.01     30.50      0  01:48       0.000     0.000
  YS02001890              0.02    165.07      0  01:48       0.001     0.000
  YS02001895              0.01     24.37      0  01:48       0.000     0.000
  YS02001898              0.01    213.25      0  01:48       0.000     0.000
  YS02001907              0.17    965.08      0  01:51       0.253     0.000
  YS02001915              0.01    195.74      0  01:48       0.000     0.000
  YS02001918              0.01    144.80      0  01:50       0.002     0.000
  YS02001923              0.01    166.78      0  01:50       0.000     0.000
  YS02001926              0.01    751.01      0  01:50       0.002     0.000
  YS02001929              0.01    475.04      0  01:50       0.002     0.000
  
  
  **********************
  Storage Volume Summary
  **********************
  
  --------------------------------------------------------------------------------------------------
                         Average     Avg  Evap Exfil       Maximum     Max    Time of Max    Maximum
                          Volume    Pcnt  Pcnt  Pcnt        Volume    Pcnt     Occurrence    Outflow
  Storage Unit           1000 m3    Full  Loss  Loss       1000 m3    Full    days hr:min        LPS
  --------------------------------------------------------------------------------------------------
  CC-storage               0.324       5     0     0         2.229      35       0  00:00   32996.09
  JK-storage               0.003       1     0     0         0.151      52       0  00:00   17379.43
  
  
  ***********************
  Outfall Loading Summary
  ***********************
  
  -----------------------------------------------------------
                         Flow       Avg       Max       Total
                         Freq      Flow      Flow      Volume
  Outfall Node           Pcnt       LPS       LPS    10^6 ltr
  -----------------------------------------------------------
  CC-1                 100.00    799.77  16161.72      10.336
  CC-2                 100.00    832.07  17045.67      10.749
  JK-1                 100.00    127.39   8590.66       1.612
  JK-2                 100.00    129.64   8788.77       1.641
  WSC                   99.98     20.80     30.38       0.693
  -----------------------------------------------------------
  System               100.00   1909.67     30.38      25.031
  
  
  ********************
  Link Flow Summary
  ********************
  
  -----------------------------------------------------------------------------
                                 Maximum  Time of Max   Maximum    Max/    Max/
                                  |Flow|   Occurrence   |Veloc|    Full    Full
  Link                 Type          LPS  days hr:min     m/sec    Flow   Depth
  -----------------------------------------------------------------------------
  1                    CONDUIT     30.38     0  07:45      1.19    0.01    0.07
  WS02003060WS02003069 CONDUIT     28.24     0  06:06      0.77    0.01    0.08
  WS02003066WSF200     CONDUIT     11.71     0  05:00      0.93    0.00    0.04
  WS02003067WS02003066 CONDUIT     11.71     0  04:46      0.09    0.00    0.18
  WS02003069WS02003072 CONDUIT     28.56     0  06:55      0.62    0.01    0.10
  WS02003072WS02003073 CONDUIT     28.56     0  07:43      0.50    0.06    0.10
  WS02004401WS02004402 CONDUIT     11.54     0  04:12      0.35    0.01    0.38
  WS02004402WS02004403 CONDUIT     11.64     0  01:16      0.40    0.02    0.42
  WS02004403WS02004404 CONDUIT     11.62     0  03:58      0.36    0.01    0.47
  WS02004404WS02004405 CONDUIT     11.82     0  03:57      0.28    0.12    0.51
  WS02004405WS02004406 CONDUIT     11.75     0  04:09      0.22    0.02    0.52
  WS02004406WS02004407 CONDUIT     11.71     0  04:53      0.06    0.01    0.29
  WS02004407WS02004409 CONDUIT     11.71     0  05:14      0.52    0.00    0.08
  WS02004409WS02004410 CONDUIT     11.71     0  04:42      0.34    0.02    0.14
  WS02004410WS02004411 CONDUIT     11.74     0  04:18      0.33    0.02    0.18
  WS02004411WS02004412 CONDUIT     11.84     0  04:09      0.36    0.02    0.22
  WS02004412WS02004413 CONDUIT     12.01     0  04:07      0.30    0.01    0.33
  WS02004413WS02003067 CONDUIT     11.71     0  04:49      0.08    0.01    0.23
  WS02006109WS02006110 CONDUIT     11.51     0  03:02      0.21    0.02    0.38
  WS02006110WS02006113 CONDUIT     11.51     0  03:42      0.10    0.01    0.28
  WS02006111WS02006112 CONDUIT     11.51     0  04:21      0.66    0.01    0.31
  WS02006112WS02006115 CONDUIT     11.82     0  01:53      0.10    0.01    0.35
  WS02006113WS02006111 CONDUIT     11.51     0  04:33      0.67    0.01    0.07
  WS02006115WS02006116 CONDUIT     12.06     0  01:53      0.45    0.02    0.24
  WS02006116WS02004401 CONDUIT     11.55     0  01:26      0.35    0.02    0.34
  WS02006228WS02006109 CONDUIT     10.28     0  02:21      0.28    0.04    0.40
  WS02006229WS02006228 CONDUIT     10.28     0  01:59      0.40    0.03    0.35
  WS02006230WS02006229 CONDUIT     10.54     0  00:16      0.36    0.23    0.31
  WS02006231WS02006230 CONDUIT      0.00     0  00:00      0.00    0.00    0.00
  WS02006232WS02006231 CONDUIT      0.00     0  00:00      0.00    0.00    0.00
  WS02006234WS02006232 CONDUIT      0.00     0  00:00      0.00    0.00    0.00
  WS02006235WS02006234 CONDUIT      0.00     0  00:00      0.00    0.00    0.00
  WS02006238WS02006235 CONDUIT      0.08     0  08:00      0.03    0.00    0.03
  WS02006239WS02006238 CONDUIT      0.08     0  08:00      0.09    0.00    0.01
  WS02006240WS02006239 CONDUIT      0.08     0  08:00      0.09    0.00    0.01
  WS02006242WS02006240 CONDUIT      0.08     0  08:00      0.02    0.00    0.03
  WS02006243WS02006242 CONDUIT      0.09     0  01:31      0.12    0.00    0.01
  WS02006245WS02006243 CONDUIT      0.08     0  07:59      0.10    0.00    0.01
  WS02006247WS02006245 CONDUIT      0.08     0  07:58      0.07    0.00    0.01
  WS02006248WS02006247 CONDUIT      0.08     0  07:59      0.11    0.00    0.01
  WS02006249WS02006248 CONDUIT      0.08     0  07:54      0.06    0.00    0.02
  WS02006251WS02006249 CONDUIT      0.09     0  00:08      0.10    0.00    0.02
  WS02006252WS02006251 CONDUIT      0.00     0  00:00      0.00    0.00    0.00
  WS02006256WS02006235 CONDUIT      0.08     0  08:00      0.35    0.00    0.01
  WSF200WS02003060     CONDUIT     11.71     0  05:14      0.47    0.00    0.06
  YS02001580YS02001583 CONDUIT     57.30     0  01:33      0.45    0.22    1.00
  YS02001583YS02001586 CONDUIT     86.59     0  01:33      0.37    0.13    1.00
  YS02001586YS02001590 CONDUIT    317.77     0  01:51      1.26    0.56    1.00
  YS02001590YS02001593 CONDUIT    317.76     0  01:46      1.14    1.99    1.00
  YS02001593YS02001596 CONDUIT    317.79     0  01:46      1.82    0.50    1.00
  YS02001596YS02001600 CONDUIT    317.81     0  01:46      1.32    0.62    1.00
  YS02001600YS02001601 CONDUIT    317.74     0  01:46      1.12    0.55    1.00
  YS02001601YS02001602 CONDUIT    511.27     0  03:00      1.81    1.85    1.00
  YS02001602YS02001605 CONDUIT    511.38     0  03:00      1.81   10.82    1.00
  YS02001605YS02001607 CONDUIT    511.48     0  03:00      1.81    2.80    1.00
  YS02001607YS02001610 CONDUIT    512.17     0  03:00      0.65    0.49    1.00
  YS02001610YS02001613 CONDUIT    617.13     0  02:09      0.79    0.71    1.00
  YS02001613YS02001616 CONDUIT    617.10     0  02:09      0.79    0.53    1.00
  YS02001616YS02001619 CONDUIT    617.20     0  02:09      0.79    1.07    1.00
  YS02001619YS02001622 CONDUIT   1053.24     0  02:22      1.34    1.55    1.00
  YS02001622YS02001625 CONDUIT   1053.24     0  02:22      1.34    0.56    1.00
  YS02001625YS02001629 CONDUIT    999.38     0  02:49      1.27    0.48    1.00
  YS02001629YS02163301 CONDUIT   1138.20     0  02:18      1.45    1.40    1.00
  YS02001633YS02163601 CONDUIT   1357.44     0  01:44      1.73    1.42    1.00
  YS02001641YS02001644 CONDUIT   1356.38     0  01:44      1.73    4.38    1.00
  YS02001644YS02001647 CONDUIT   1714.61     0  01:44      2.19    1.01    1.00
  YS02001647YS02001649 CONDUIT   1708.96     0  01:44      2.27    0.90    1.00
  YS02001649YS02001757 CONDUIT   1988.09     0  01:45      2.53    1.21    1.00
  YS02001652YS02001649 CONDUIT   2428.58     0  02:16      3.09    1.20    1.00
  YS02001655YS02001652 CONDUIT   2428.58     0  02:16      3.09    1.18    1.00
  YS02001658YS02001655 CONDUIT   2731.29     0  02:15      3.48    1.16    1.00
  YS02001661YS02001658 CONDUIT   2783.08     0  02:15      3.54    1.09    1.00
  YS02001664YS02001661 CONDUIT   2783.08     0  02:15      3.54    0.87    1.00
  YS02001745YS02001748 CONDUIT   2194.03     0  02:13      2.79    0.84    1.00
  YS02001748YS02001751 CONDUIT   2194.41     0  02:13      2.79    1.11    1.00
  YS02001751YS02001754 CONDUIT   2194.06     0  02:13      2.79    1.06    1.00
  YS02001754YS02001757 CONDUIT   2194.54     0  02:13      2.79    0.88    1.00
  YS02001757CaochengTiaoxuchi CONDUIT   3491.10     0  02:12      7.03    1.51    0.60
  YS02001759YS02001757 CONDUIT   1682.06     0  02:14      2.14    1.20    1.00
  YS02001762YS02001759 CONDUIT    777.98     0  02:29      0.99    0.90    1.00
  YS02001765YS02001762 CONDUIT    777.56     0  02:29      0.99    0.73    1.00
  YS02001767YS02001765 CONDUIT    776.99     0  02:29      0.99    0.98    1.00
  YS02001770YS02001767 CONDUIT    776.40     0  02:29      0.99    3.08    1.00
  YS02001774YS02001770 CONDUIT    851.41     0  02:18      1.08    0.54    1.00
  YS02001779YS02001774 CONDUIT    851.28     0  02:18      1.08    0.43    1.00
  YS02001783YS02001784 CONDUIT   1151.28     0  01:50      2.29    1.59    1.00
  YS02001784YS02001785 CONDUIT   1152.25     0  01:50      2.29    2.68    1.00
  YS02001786YS02001788 CONDUIT   1152.86     0  01:50      2.46    2.22    0.89
  YS02001788YS02001790 CONDUIT   1166.09     0  01:50      2.71    0.86    0.82
  YS02001790YS02001791 CONDUIT   1259.04     0  01:51      3.37    1.37    0.70
  YS02001791YS02001793 CONDUIT   1214.00     0  01:58      6.70    0.52    0.40
  YS02001793JiankangQianchi CONDUIT   1243.72     0  01:58     10.61    0.10    0.50
  YS02001882YS02001884 CONDUIT    117.45     0  01:48      0.15    0.13    1.00
  YS02001884YS02001887 CONDUIT    142.76     0  01:48      0.18    0.19    1.00
  YS02001887YS02001890 CONDUIT    516.74     0  01:48      0.66    0.88    1.00
  YS02001890YS02001895 CONDUIT    521.21     0  01:48      0.66    0.24    1.00
  YS02001895YS02001898 CONDUIT    519.95     0  01:48      0.66    0.90    1.00
  YS02001898YS02001901 CONDUIT    528.39     0  01:49      0.67    0.34    1.00
  YS02001901YS02001904 CONDUIT    529.51     0  01:48      0.67    0.82    1.00
  YS02001904YS02001907 CONDUIT    531.58     0  01:48      0.68    0.19    1.00
  YS02001907YS02006553 CONDUIT    790.12     0  02:02      0.88    0.93    1.00
  YS02001910YS02001907 CONDUIT    982.69     0  01:51      1.25    0.55    1.00
  YS02001915YS02001910 CONDUIT    982.82     0  01:51      1.25    0.49    1.00
  YS02001918YS02001915 CONDUIT    549.88     0  01:49      0.73    0.30    1.00
  YS02001920YS02001918 CONDUIT    524.47     0  01:49      0.67    0.51    1.00
  YS02001923YS02001920 CONDUIT    532.37     0  01:49      0.77    0.24    1.00
  YS02001926YS02001923 CONDUIT    719.99     0  01:49      1.16    1.03    1.00
  YS02001929YS02001926 CONDUIT    546.56     0  01:50      1.20    0.26    1.00
  YS02006553YS02006556 CONDUIT    790.32     0  02:02      1.01    0.68    1.00
  YS02006556YS02006558 CONDUIT    790.67     0  02:02      1.01    0.62    1.00
  YS02006558YS02006561 CONDUIT   1162.64     0  01:49      4.11    2.57    1.00
  YS02006561YS02001783 CONDUIT   1151.24     0  01:50      2.29    0.60    1.00
  YS02163301YS02001633 CONDUIT   1138.20     0  02:18      1.45    1.07    1.00
  YS02163601YS02164001 CONDUIT   1357.33     0  01:44      1.73    1.20    1.00
  YS02164001YS02001641 CONDUIT   1356.74     0  01:44      1.73    1.85    1.00
  2                    CONDUIT  16161.72     0  00:00     26.41    0.88    0.73
  3                    CONDUIT  17045.67     0  00:00     27.65    0.89    0.73
  4                    CONDUIT      0.00     0  00:00      0.00    0.00    0.40
  5                    CONDUIT   8590.66     0  00:00     10.94    1.24    1.00
  6                    CONDUIT   8788.77     0  00:00     11.19    1.25    1.00
  7                    CONDUIT      0.08     0  08:00      0.06    0.00    0.50
  
  
  ***************************
  Flow Classification Summary
  ***************************
  
  -------------------------------------------------------------------------------------
                      Adjusted    ---------- Fraction of Time in Flow Class ---------- 
                       /Actual         Up    Down  Sub   Sup   Up    Down  Norm  Inlet 
  Conduit               Length    Dry  Dry   Dry   Crit  Crit  Crit  Crit  Ltd   Ctrl  
  -------------------------------------------------------------------------------------
  1                       1.00   0.00  0.00  0.00  0.00  1.00  0.00  0.00  0.92  0.00
  WS02003060WS02003069    1.00   0.00  0.00  0.00  0.98  0.02  0.00  0.00  0.99  0.00
  WS02003066WSF200        1.00   0.73  0.00  0.00  0.00  0.27  0.00  0.00  0.51  0.00
  WS02003067WS02003066    1.00   0.70  0.03  0.00  0.27  0.00  0.00  0.00  0.00  0.00
  WS02003069WS02003072    1.00   0.00  0.00  0.00  0.99  0.01  0.00  0.00  0.99  0.00
  WS02003072WS02003073    1.00   0.00  0.00  0.00  0.00  0.00  0.00  1.00  0.00  0.00
  WS02004401WS02004402    1.00   0.10  0.00  0.00  0.90  0.00  0.00  0.00  0.04  0.00
  WS02004402WS02004403    1.00   0.10  0.00  0.00  0.90  0.00  0.00  0.00  0.00  0.00
  WS02004403WS02004404    1.00   0.00  0.10  0.00  0.90  0.00  0.00  0.00  0.04  0.00
  WS02004404WS02004405    1.00   0.00  0.00  0.00  1.00  0.00  0.00  0.00  0.00  0.00
  WS02004405WS02004406    1.00   0.00  0.00  0.00  1.00  0.00  0.00  0.00  0.04  0.00
  WS02004406WS02004407    1.00   0.00  0.50  0.00  0.50  0.00  0.00  0.00  0.00  0.00
  WS02004407WS02004409    1.00   0.51  0.00  0.00  0.47  0.02  0.00  0.00  0.65  0.00
  WS02004409WS02004410    1.00   0.51  0.00  0.00  0.49  0.00  0.00  0.00  0.04  0.00
  WS02004410WS02004411    1.00   0.51  0.00  0.00  0.49  0.00  0.00  0.00  0.04  0.00
  WS02004411WS02004412    1.00   0.52  0.00  0.00  0.48  0.00  0.00  0.00  0.00  0.00
  WS02004412WS02004413    1.00   0.52  0.00  0.00  0.48  0.00  0.00  0.00  0.05  0.00
  WS02004413WS02003067    1.00   0.53  0.17  0.00  0.00  0.00  0.30  0.00  0.00  0.00
  WS02006109WS02006110    1.00   0.00  0.03  0.00  0.96  0.00  0.02  0.00  0.00  0.00
  WS02006110WS02006113    1.00   0.03  0.04  0.00  0.93  0.00  0.00  0.00  0.00  0.00
  WS02006111WS02006112    1.00   0.07  0.00  0.00  0.92  0.00  0.00  0.00  0.92  0.00
  WS02006112WS02006115    1.00   0.08  0.02  0.00  0.90  0.00  0.00  0.00  0.00  0.00
  WS02006113WS02006111    1.00   0.07  0.00  0.00  0.02  0.91  0.00  0.00  0.00  0.00
  WS02006115WS02006116    1.00   0.09  0.00  0.00  0.78  0.00  0.00  0.13  0.01  0.00
  WS02006116WS02004401    1.00   0.09  0.00  0.00  0.91  0.00  0.00  0.00  0.01  0.00
  WS02006228WS02006109    1.00   0.00  0.00  0.00  0.99  0.00  0.00  0.00  0.00  0.00
  WS02006229WS02006228    1.00   0.00  0.00  0.00  0.98  0.00  0.00  0.02  0.00  0.00
  WS02006230WS02006229    1.00   0.00  0.00  0.00  0.95  0.00  0.00  0.05  0.00  0.00
  WS02006231WS02006230    1.00   1.00  0.00  0.00  0.00  0.00  0.00  0.00  0.00  0.00
  WS02006232WS02006231    1.00   1.00  0.00  0.00  0.00  0.00  0.00  0.00  0.00  0.00
  WS02006234WS02006232    1.00   1.00  0.00  0.00  0.00  0.00  0.00  0.00  0.00  0.00
  WS02006235WS02006234    1.00   1.00  0.00  0.00  0.00  0.00  0.00  0.00  0.00  0.00
  WS02006238WS02006235    1.00   0.18  0.10  0.00  0.72  0.00  0.00  0.00  0.00  0.00
  WS02006239WS02006238    1.00   0.17  0.00  0.00  0.72  0.00  0.00  0.11  0.73  0.00
  WS02006240WS02006239    1.00   0.16  0.00  0.00  0.00  0.00  0.00  0.84  0.00  0.00
  WS02006242WS02006240    1.00   0.06  0.10  0.00  0.77  0.00  0.07  0.00  0.00  0.00
  WS02006243WS02006242    1.00   0.06  0.00  0.00  0.86  0.00  0.00  0.09  0.78  0.00
  WS02006245WS02006243    1.00   0.05  0.00  0.00  0.01  0.00  0.00  0.94  0.00  0.00
  WS02006247WS02006245    1.00   0.04  0.00  0.00  0.90  0.00  0.00  0.06  0.00  0.00
  WS02006248WS02006247    1.00   0.04  0.00  0.00  0.92  0.00  0.00  0.04  0.02  0.00
  WS02006249WS02006248    1.00   0.00  0.03  0.00  0.00  0.00  0.96  0.00  0.00  0.00
  WS02006251WS02006249    1.00   0.00  0.00  0.00  1.00  0.00  0.00  0.00  0.98  0.00
  WS02006252WS02006251    1.00   1.00  0.00  0.00  0.00  0.00  0.00  0.00  0.00  0.00
  WS02006256WS02006235    1.00   0.28  0.00  0.00  0.01  0.72  0.00  0.00  0.00  0.00
  WSF200WS02003060        1.00   0.00  0.73  0.00  0.27  0.00  0.00  0.00  0.52  0.00
  YS02001580YS02001583    1.00   0.16  0.27  0.00  0.57  0.00  0.00  0.00  0.61  0.00
  YS02001583YS02001586    1.00   0.23  0.15  0.00  0.61  0.00  0.00  0.00  0.61  0.00
  YS02001586YS02001590    1.00   0.10  0.00  0.00  0.72  0.02  0.00  0.16  0.29  0.00
  YS02001590YS02001593    1.00   0.10  0.00  0.00  0.48  0.00  0.42  0.00  0.00  0.00
  YS02001593YS02001596    1.00   0.10  0.00  0.00  0.50  0.01  0.00  0.39  0.01  0.00
  YS02001596YS02001600    1.00   0.10  0.00  0.00  0.55  0.01  0.00  0.34  0.02  0.00
  YS02001600YS02001601    1.00   0.10  0.00  0.00  0.90  0.00  0.00  0.00  0.56  0.00
  YS02001601YS02001602    1.00   0.10  0.00  0.00  0.90  0.00  0.00  0.00  0.00  0.00
  YS02001602YS02001605    1.00   0.10  0.00  0.00  0.90  0.00  0.00  0.00  0.00  0.00
  YS02001605YS02001607    1.00   0.10  0.00  0.00  0.90  0.00  0.00  0.00  0.00  0.00
  YS02001607YS02001610    1.00   0.10  0.00  0.00  0.90  0.00  0.00  0.00  0.00  0.00
  YS02001610YS02001613    1.00   0.10  0.00  0.00  0.90  0.00  0.00  0.00  0.00  0.00
  YS02001613YS02001616    1.00   0.10  0.00  0.00  0.90  0.00  0.00  0.00  0.00  0.00
  YS02001616YS02001619    1.00   0.10  0.00  0.00  0.90  0.00  0.00  0.00  0.00  0.00
  YS02001619YS02001622    1.00   0.10  0.00  0.00  0.90  0.00  0.00  0.00  0.31  0.00
  YS02001622YS02001625    1.00   0.10  0.00  0.00  0.90  0.00  0.00  0.00  0.01  0.00
  YS02001625YS02001629    1.00   0.10  0.01  0.00  0.51  0.00  0.37  0.00  0.00  0.00
  YS02001629YS02163301    1.00   0.11  0.00  0.00  0.89  0.00  0.00  0.00  0.00  0.00
  YS02001633YS02163601    1.00   0.00  0.02  0.00  0.98  0.00  0.00  0.00  0.13  0.00
  YS02001641YS02001644    1.00   0.00  0.02  0.00  0.98  0.00  0.00  0.00  0.00  0.00
  YS02001644YS02001647    1.00   0.00  0.11  0.00  0.89  0.00  0.00  0.00  0.00  0.00
  YS02001647YS02001649    1.00   0.00  0.11  0.00  0.64  0.25  0.00  0.00  0.55  0.00
  YS02001649YS02001757    1.00   0.00  0.00  0.00  0.80  0.20  0.00  0.00  0.76  0.00
  YS02001652YS02001649    1.00   0.00  0.00  0.00  0.99  0.01  0.00  0.00  0.69  0.00
  YS02001655YS02001652    1.00   0.00  0.00  0.00  0.54  0.01  0.00  0.45  0.07  0.00
  YS02001658YS02001655    1.00   0.00  0.10  0.00  0.66  0.24  0.00  0.00  0.66  0.00
  YS02001661YS02001658    1.00   0.10  0.00  0.00  0.48  0.42  0.00  0.00  0.67  0.00
  YS02001664YS02001661    1.00   0.10  0.00  0.00  0.62  0.28  0.00  0.00  0.81  0.00
  YS02001745YS02001748    1.00   0.00  0.00  0.00  0.27  0.02  0.00  0.71  0.03  0.00
  YS02001748YS02001751    1.00   0.00  0.00  0.00  0.77  0.23  0.00  0.00  0.77  0.00
  YS02001751YS02001754    1.00   0.00  0.00  0.00  0.49  0.01  0.00  0.50  0.06  0.00
  YS02001754YS02001757    1.00   0.00  0.00  0.00  0.97  0.03  0.00  0.00  0.74  0.00
  YS02001757CaochengTiaoxuchi    1.00   0.00  0.00  0.00  0.08  0.92  0.00  0.00  0.10  0.00
  YS02001759YS02001757    1.00   0.00  0.00  0.00  1.00  0.00  0.00  0.00  0.56  0.00
  YS02001762YS02001759    1.00   0.00  0.00  0.00  1.00  0.00  0.00  0.00  0.04  0.00
  YS02001765YS02001762    1.00   0.00  0.00  0.00  1.00  0.00  0.00  0.00  0.68  0.00
  YS02001767YS02001765    1.00   0.00  0.00  0.00  1.00  0.00  0.00  0.00  0.00  0.00
  YS02001770YS02001767    1.00   0.00  0.00  0.00  1.00  0.00  0.00  0.00  0.00  0.00
  YS02001774YS02001770    1.00   0.01  0.10  0.00  0.80  0.00  0.09  0.00  0.01  0.00
  YS02001779YS02001774    1.00   0.00  0.00  0.00  1.00  0.00  0.00  0.00  0.73  0.00
  YS02001783YS02001784    1.00   0.00  0.15  0.00  0.85  0.00  0.00  0.00  0.58  0.00
  YS02001784YS02001785    1.00   0.00  0.00  0.00  1.00  0.00  0.00  0.00  0.17  0.00
  YS02001786YS02001788    1.00   0.00  0.00  0.00  0.58  0.42  0.00  0.00  0.00  0.00
  YS02001788YS02001790    1.00   0.00  0.00  0.00  0.18  0.82  0.00  0.00  0.85  0.00
  YS02001790YS02001791    1.00   0.00  0.00  0.00  0.03  0.97  0.00  0.00  0.15  0.00
  YS02001791YS02001793    1.00   0.00  0.00  0.00  0.00  1.00  0.00  0.00  0.00  0.00
  YS02001793JiankangQianchi    1.00   0.00  0.00  0.00  0.02  0.98  0.00  0.00  0.02  0.00
  YS02001882YS02001884    1.00   0.12  0.01  0.00  0.88  0.00  0.00  0.00  0.00  0.00
  YS02001884YS02001887    1.00   0.07  0.03  0.00  0.90  0.00  0.00  0.00  0.00  0.00
  YS02001887YS02001890    1.00   0.00  0.01  0.00  0.95  0.00  0.04  0.00  0.00  0.00
  YS02001890YS02001895    1.00   0.01  0.12  0.00  0.87  0.00  0.00  0.00  0.00  0.00
  YS02001895YS02001898    1.00   0.13  0.00  0.00  0.84  0.00  0.03  0.00  0.00  0.00
  YS02001898YS02001901    1.00   0.13  0.00  0.00  0.87  0.00  0.00  0.00  0.01  0.00
  YS02001901YS02001904    1.00   0.13  0.00  0.00  0.87  0.00  0.00  0.00  0.00  0.00
  YS02001904YS02001907    1.00   0.01  0.12  0.00  0.87  0.00  0.00  0.00  0.00  0.00
  YS02001907YS02006553    1.00   0.01  0.03  0.00  0.96  0.00  0.00  0.00  0.00  0.00
  YS02001910YS02001907    1.00   0.00  0.00  0.00  0.95  0.00  0.00  0.04  0.12  0.00
  YS02001915YS02001910    1.00   0.00  0.00  0.00  0.97  0.03  0.00  0.00  0.16  0.00
  YS02001918YS02001915    1.00   0.00  0.02  0.00  0.96  0.02  0.00  0.00  0.79  0.00
  YS02001920YS02001918    1.00   0.00  0.02  0.00  0.98  0.00  0.00  0.00  0.00  0.00
  YS02001923YS02001920    1.00   0.00  0.00  0.00  1.00  0.00  0.00  0.00  0.95  0.00
  YS02001926YS02001923    1.00   0.00  0.08  0.00  0.09  0.00  0.84  0.00  0.00  0.00
  YS02001929YS02001926    1.00   0.00  0.10  0.00  0.90  0.00  0.00  0.00  0.84  0.00
  YS02006553YS02006556    1.00   0.03  0.00  0.00  0.97  0.00  0.00  0.00  0.03  0.00
  YS02006556YS02006558    1.00   0.00  0.01  0.00  0.99  0.00  0.00  0.00  0.00  0.00
  YS02006558YS02006561    1.00   0.15  0.00  0.00  0.08  0.77  0.00  0.00  0.18  0.00
  YS02006561YS02001783    1.00   0.15  0.00  0.00  0.14  0.71  0.00  0.00  0.72  0.00
  YS02163301YS02001633    1.00   0.00  0.11  0.00  0.89  0.00  0.00  0.00  0.00  0.00
  YS02163601YS02164001    1.00   0.00  0.08  0.00  0.92  0.00  0.00  0.00  0.00  0.00
  YS02164001YS02001641    1.00   0.02  0.06  0.00  0.92  0.00  0.00  0.00  0.05  0.00
  2                       1.00   0.00  0.00  0.00  0.00  1.00  0.00  0.00  0.13  0.00
  3                       1.00   0.00  0.00  0.00  0.00  1.00  0.00  0.00  0.09  0.00
  4                       1.00   0.00  1.00  0.00  0.00  0.00  0.00  0.00  0.00  0.00
  5                       1.00   0.00  0.00  0.00  0.00  1.00  0.00  0.00  0.50  0.00
  6                       1.00   0.00  0.00  0.00  0.00  1.00  0.00  0.00  0.49  0.00
  7                       1.00   0.00  0.29  0.00  0.71  0.00  0.00  0.00  0.76  0.00
  
  
  *************************
  Conduit Surcharge Summary
  *************************
  
  ----------------------------------------------------------------------------
                                                           Hours        Hours 
                         --------- Hours Full --------   Above Full   Capacity
  Conduit                Both Ends  Upstream  Dnstream   Normal Flow   Limited
  ----------------------------------------------------------------------------
  YS02001580YS02001583        1.42      1.42      1.47      0.01         0.01
  YS02001583YS02001586        1.43      1.43      1.52      0.01         0.01
  YS02001586YS02001590        1.53      1.53      1.60      0.01         0.01
  YS02001590YS02001593        1.60      1.60      1.62      1.60         0.01
  YS02001593YS02001596        1.61      1.61      1.71      0.01         0.01
  YS02001596YS02001600        1.76      1.76      1.82      0.01         0.01
  YS02001600YS02001601        1.86      1.86      2.04      0.01         0.01
  YS02001601YS02001602        1.97      1.97      2.07      1.84         0.01
  YS02001602YS02001605        1.94      1.94      1.97      2.63         0.01
  YS02001605YS02001607        1.90      1.94      1.90      2.02         1.90
  YS02001607YS02001610        1.53      1.53      1.56      0.01         0.01
  YS02001610YS02001613        1.53      1.53      1.56      0.01         0.01
  YS02001613YS02001616        1.49      1.49      1.53      0.01         0.01
  YS02001616YS02001619        1.48      1.48      1.49      0.46         0.48
  YS02001619YS02001622        1.47      1.48      1.47      1.63         1.46
  YS02001622YS02001625        1.47      1.47      1.64      0.01         0.01
  YS02001625YS02001629        1.30      1.30      1.64      0.01         0.01
  YS02001629YS02163301        1.62      1.62      1.63      0.87         0.60
  YS02001633YS02163601        1.64      1.64      1.67      0.78         0.78
  YS02001641YS02001644        1.48      1.54      1.48      2.07         1.48
  YS02001644YS02001647        1.04      1.04      1.48      0.02         0.01
  YS02001647YS02001649        1.04      1.04      1.09      0.01         0.01
  YS02001649YS02001757        1.05      1.09      1.05      0.74         0.48
  YS02001652YS02001649        0.94      0.94      1.09      0.16         0.16
  YS02001655YS02001652        0.80      0.80      0.92      0.16         0.16
  YS02001658YS02001655        0.65      0.65      0.80      0.12         0.13
  YS02001661YS02001658        0.40      0.40      0.65      0.10         0.10
  YS02001664YS02001661        0.23      0.23      0.46      0.01         0.01
  YS02001745YS02001748        0.19      0.19      0.51      0.01         0.01
  YS02001748YS02001751        0.60      0.60      0.69      0.04         0.04
  YS02001751YS02001754        0.69      0.69      0.81      0.03         0.03
  YS02001754YS02001757        0.84      0.84      1.05      0.01         0.01
  YS02001757CaochengTiaoxuchi        0.01      1.05      0.01      1.26         0.01
  YS02001759YS02001757        0.98      0.98      1.05      0.25         0.25
  YS02001762YS02001759        0.97      0.97      0.98      0.01         0.02
  YS02001765YS02001762        0.94      0.94      0.97      0.01         0.01
  YS02001767YS02001765        0.93      0.93      0.94      0.01         0.03
  YS02001770YS02001767        0.93      0.93      0.93      1.31         0.70
  YS02001774YS02001770        0.92      0.92      0.98      0.01         0.01
  YS02001779YS02001774        0.83      0.83      0.98      0.01         0.01
  YS02001783YS02001784        0.32      0.34      0.32      0.46         0.32
  YS02001784YS02001785        0.23      0.32      0.23      0.64         0.23
  YS02001786YS02001788        0.01      0.23      0.01      0.54         0.01
  YS02001790YS02001791        0.01      0.01      0.01      0.31         0.01
  YS02001882YS02001884        0.30      0.30      0.31      0.01         0.01
  YS02001884YS02001887        0.32      0.32      0.33      0.01         0.01
  YS02001887YS02001890        0.35      0.35      0.36      0.01         0.01
  YS02001890YS02001895        0.29      0.29      0.37      0.01         0.01
  YS02001895YS02001898        0.28      0.28      0.29      0.01         0.01
  YS02001898YS02001901        0.29      0.29      0.33      0.01         0.01
  YS02001901YS02001904        0.32      0.32      0.33      0.01         0.01
  YS02001904YS02001907        0.32      0.32      0.51      0.01         0.01
  YS02001907YS02006553        0.64      0.64      0.69      0.01         0.01
  YS02001910YS02001907        0.37      0.37      0.50      0.01         0.01
  YS02001915YS02001910        0.29      0.29      0.37      0.01         0.01
  YS02001918YS02001915        0.22      0.22      0.29      0.01         0.01
  YS02001920YS02001918        0.22      0.22      0.23      0.01         0.01
  YS02001923YS02001920        0.17      0.17      0.23      0.01         0.01
  YS02001926YS02001923        0.01      0.01      0.01      0.01         0.01
  YS02001929YS02001926        0.01      0.01      0.01      0.01         0.01
  YS02006553YS02006556        0.44      0.44      0.51      0.01         0.01
  YS02006556YS02006558        0.48      0.48      0.53      0.01         0.01
  YS02006558YS02006561        0.25      0.43      0.25      0.60         0.25
  YS02006561YS02001783        0.19      0.19      0.34      0.01         0.01
  YS02163301YS02001633        1.63      1.63      1.66      0.21         0.01
  YS02163601YS02164001        1.56      1.56      1.67      0.57         0.01
  YS02164001YS02001641        1.54      1.56      1.54      1.33         1.14
  5                           0.01      0.01      0.01      0.01         0.01
  6                           0.01      0.01      0.01      0.01         0.01
  

  Analysis begun on:  Wed Aug  9 16:19:22 2023
  Analysis ended on:  Wed Aug  9 16:19:36 2023
  Total elapsed time: 00:00:14