
  OWA STORM WATER MANAGEMENT MODEL - VERSION v5.2.3 (OWA 2023-03-28)
  ------------------------------------------------------------

  WARNING 04: minimum elevation drop used for Conduit WS02004404WS02004405
  WARNING 03: negative offset ignored for Link YS02001904YS02001907
  
  ****************
  Analysis Options
  ****************
  Flow Units ............... LPS
  Process Models:
    Rainfall/Runoff ........ YES
    RDII ................... NO
    Snowmelt ............... NO
    Groundwater ............ NO
    Flow Routing ........... YES
    Ponding Allowed ........ NO
    Water Quality .......... NO
  Infiltration Method ...... HORTON
  Flow Routing Method ...... DYNWAVE
  Surcharge Method ......... EXTRAN
  Starting Date ............ 08/28/2015 08:00:00
  Ending Date .............. 08/28/2015 16:00:00
  Antecedent Dry Days ...... 8.0
  Report Time Step ......... 00:01:00
  Wet Time Step ............ 00:01:00
  Dry Time Step ............ 00:01:00
  Routing Time Step ........ 30.00 sec
  Variable Time Step ....... YES
  Maximum Trials ........... 8
  Number of Threads ........ 4
  Head Tolerance ........... 0.001500 m
  
  
  **************************        Volume         Depth
  Runoff Quantity Continuity     hectare-m            mm
  **************************     ---------       -------
  Total Precipitation ......         2.717        44.855
  Evaporation Loss .........         0.000         0.000
  Infiltration Loss ........         0.228         3.761
  Surface Runoff ...........         2.429        40.098
  Final Storage ............         0.061         1.005
  Continuity Error (%) .....        -0.021
  
  
  **************************        Volume        Volume
  Flow Routing Continuity        hectare-m      10^6 ltr
  **************************     ---------     ---------
  Dry Weather Inflow .......         0.630         6.296
  Wet Weather Inflow .......         2.429        24.295
  Groundwater Inflow .......         0.000         0.000
  RDII Inflow ..............         0.000         0.000
  External Inflow ..........         0.105         1.045
  External Outflow .........         2.501        25.015
  Flooding Loss ............         0.927         9.270
  Evaporation Loss .........         0.000         0.000
  Exfiltration Loss ........         0.000         0.000
  Initial Stored Volume ....         0.303         3.031
  Final Stored Volume ......         0.176         1.755
  Continuity Error (%) .....        -3.962
  
  
  *************************
  Highest Continuity Errors
  *************************
  Node JK-storage (-11.96%)
  Node YS02001583 (-11.92%)
  Node CC-storage (-6.99%)
  Node YS02001884 (5.02%)
  Node YS02001774 (1.78%)
  
  
  ***************************
  Time-Step Critical Elements
  ***************************
  Link WS02006252WS02006251 (66.90%)
  Link WS02006280WS02006229 (8.32%)
  Link WS02006238WS02006235 (5.75%)
  Link WS02004404WS02004405 (4.46%)
  Link YS02001793JiankangQianchi (4.10%)
  
  
  ********************************
  Highest Flow Instability Indexes
  ********************************
  Link WS02006113WS02006111 (29)
  Link WS02006252WS02006251 (13)
  Link WS02004404WS02004405 (13)
  Link WS02006111WS02006112 (12)
  Link WS02006238WS02006235 (12)
  
  
  *********************************
  Most Frequent Nonconverging Nodes
  *********************************
  Node CC-1 (8.07%)
  Node CC-2 (8.07%)
  Node JK-1 (8.07%)
  Node JK-2 (8.07%)
  Node WSC (8.07%)
  
  
  *************************
  Routing Time Step Summary
  *************************
  Minimum Time Step           :     0.01 sec
  Average Time Step           :     1.51 sec
  Maximum Time Step           :    30.00 sec
  % of Time in Steady State   :     0.00
  Average Iterations per Step :     2.80
  % of Steps Not Converging   :     8.07
  Time Step Frequencies       :
     30.000 - 13.228 sec      :     0.01 %
     13.228 -  5.833 sec      :     0.17 %
      5.833 -  2.572 sec      :     3.16 %
      2.572 -  1.134 sec      :    62.13 %
      1.134 -  0.500 sec      :    34.53 %
  
  
  ***************************
  Subcatchment Runoff Summary
  ***************************
  
  ------------------------------------------------------------------------------------------------------------------------------
                            Total      Total      Total      Total     Imperv       Perv      Total       Total     Peak  Runoff
                           Precip      Runon       Evap      Infil     Runoff     Runoff     Runoff      Runoff   Runoff   Coeff
  Subcatchment                 mm         mm         mm         mm         mm         mm         mm    10^6 ltr      LPS
  ------------------------------------------------------------------------------------------------------------------------------
  sub0                      44.85       0.00       0.00       0.98      40.46       2.17      42.63        0.03    24.08   0.950
  sub1                      44.85       0.00       0.00       1.64      38.67       3.29      41.97        0.28   155.08   0.936
  sub10                     44.85       0.00       0.00       1.16      39.98       2.43      42.41        0.47   267.95   0.946
  sub11                     44.85       0.00       0.00       1.15      40.00       2.44      42.44        0.49   300.41   0.946
  sub12                     44.85       0.00       0.00       1.86      37.85       3.97      41.81        0.37   244.18   0.932
  sub14                     44.85       0.00       0.00       1.31      39.56       2.73      42.29        0.40   238.28   0.943
  sub15                     44.85       0.00       0.00       5.03      30.43       8.43      38.86        0.67   347.01   0.866
  sub16                     44.85       0.00       0.00       5.22      29.14       9.58      38.72        0.41   235.05   0.863
  sub17                     44.85       0.00       0.00       5.09      29.57       9.27      38.84        0.33   191.21   0.866
  sub2                      44.85       0.00       0.00       7.09      27.35       9.51      36.86        0.34   149.52   0.822
  sub22                     44.85       0.00       0.00       7.58      24.78      11.71      36.49        2.31  1131.42   0.814
  sub23                     44.85       0.00       0.00       6.21      27.40      10.39      37.79        1.80   951.66   0.842
  sub3                      44.85       0.00       0.00       7.64      27.32       8.95      36.27        0.82   319.68   0.809
  sub4                      44.85       0.00       0.00       1.81      38.51       3.13      41.64        0.87   359.53   0.928
  sub5                      44.85       0.00       0.00       1.01      40.41       2.13      42.54        0.48   270.08   0.948
  sub60                     44.85       0.00       0.00       1.75      38.27       3.63      41.90        0.55   338.60   0.934
  sub61                     44.85       0.00       0.00       2.53      36.09       5.10      41.19        0.76   465.09   0.918
  sub62                     44.85       0.00       0.00       1.17      39.98       2.42      42.40        1.16   654.14   0.945
  sub63                     44.85       0.00       0.00       4.63      30.87       8.38      39.25        0.89   503.79   0.875
  sub64                     44.85       0.00       0.00       2.35      36.92       4.38      41.30        0.99   518.98   0.921
  sub65                     44.85       0.00       0.00       2.03      37.77       3.80      41.57        1.14   577.73   0.927
  sub66                     44.85       0.00       0.00       5.63      30.77       7.38      38.15        1.78   722.27   0.850
  sub67                     44.85       0.00       0.00       1.13      40.02       2.46      42.48        0.79   522.04   0.947
  sub68                     44.85       0.00       0.00       2.09      37.38       4.19      41.57        1.14   668.87   0.927
  sub69                     44.85       0.00       0.00       1.83      38.01       4.90      42.91        1.59   778.59   0.957
  sub7                      44.85       0.00       0.00       1.29      39.57       2.75      42.32        0.14    89.02   0.944
  sub70                     44.85       0.00       0.00       5.96      29.44       9.29      38.73        1.12   410.39   0.863
  sub71                     44.85       0.00       0.00       1.19      39.94       2.40      42.33        1.11   565.99   0.944
  sub72                     44.85       0.00       0.00       1.06      40.31       2.08      42.40        0.58   268.86   0.945
  sub8                      44.85       0.00       0.00       1.30      39.56       2.74      42.30        0.27   162.51   0.943
  sub9                      44.85       0.00       0.00       1.30      39.56       2.74      42.30        0.20   121.27   0.943
  
  
  ******************
  Node Depth Summary
  ******************
  
  ---------------------------------------------------------------------------------
                                 Average  Maximum  Maximum  Time of Max    Reported
                                   Depth    Depth      HGL   Occurrence   Max Depth
  Node                 Type       Meters   Meters   Meters  days hr:min      Meters
  ---------------------------------------------------------------------------------
  HS02004478           JUNCTION     0.15     1.63    10.85     0  01:48        1.63
  HS02004479           JUNCTION     0.21     1.75    10.96     0  01:48        1.66
  HS02004480           JUNCTION     0.18     1.73    10.97     0  01:48        1.62
  HS02004770           JUNCTION     0.20     1.42    11.25     0  01:47        1.42
  HS02004777           JUNCTION     0.22     1.48    11.28     0  01:47        1.48
  HS02004785           JUNCTION     0.12     1.49    11.39     0  01:47        1.40
  HS02004788           JUNCTION     0.10     1.42    11.32     0  01:47        1.42
  HS02004792           JUNCTION     0.13     1.60    11.12     0  01:46        1.60
  HS02004799           JUNCTION     0.23     1.76    10.97     0  01:48        1.76
  HS02004802           JUNCTION     0.24     1.79    10.92     0  01:50        1.63
  HS02004807           JUNCTION     0.21     1.92    11.09     0  01:50        1.65
  HS02004817           JUNCTION     0.51     2.44    11.29     0  01:48        2.00
  HS02004824           JUNCTION     0.10     2.01    11.41     0  01:48        1.48
  HS02004830           JUNCTION     0.11     2.03    11.50     0  01:48        1.44
  HS02004837           JUNCTION     0.09     2.04    11.62     0  01:48        1.35
  HS02004842           JUNCTION     0.38     2.22    11.49     0  01:50        1.67
  HS02004848           JUNCTION     0.07     2.01    11.61     0  01:50        1.34
  HS02004852           JUNCTION     0.07     2.06    11.57     0  01:50        1.39
  HS02004856           JUNCTION     0.13     2.07    11.50     0  01:50        1.44
  HS02004862           JUNCTION     0.08     2.00    11.38     0  01:50        1.43
  HS02004870           JUNCTION     0.07     2.10    11.39     0  01:50        1.43
  HS02004876           JUNCTION     0.11     2.26    11.29     0  01:50        1.56
  HS02004881           JUNCTION     0.07     2.15    11.18     0  01:50        1.39
  HS02004901           JUNCTION     0.20     1.42    11.24     0  01:47        1.42
  WS02001211           JUNCTION     0.63     0.80     5.64     0  01:55        0.80
  WS02001212           JUNCTION     0.37     0.56     5.63     0  01:54        0.56
  WS02001213           JUNCTION     0.58     0.86     5.62     0  01:54        0.86
  WS02003059           JUNCTION     0.65     0.93     5.61     0  01:54        0.93
  WS02003060           JUNCTION     0.36     0.67     5.61     0  01:55        0.67
  WS02003066           JUNCTION     0.22     0.45     6.00     0  01:52        0.45
  WS02003067           JUNCTION     0.53     0.88     6.20     0  01:49        0.88
  WS02003069           JUNCTION     0.41     0.76     5.35     0  01:55        0.76
  WS02003072           JUNCTION     0.47     0.80     5.17     0  01:56        0.80
  WS02003073           JUNCTION     0.28     0.51     4.57     0  01:56        0.51
  WS02004138           JUNCTION     0.13     0.14     7.39     0  00:32        0.14
  WS02004139           JUNCTION     0.57     0.73     5.64     0  01:54        0.73
  WS02004401           JUNCTION     0.71     1.77     7.77     0  01:50        1.77
  WS02004402           JUNCTION     0.73     1.71     7.67     0  01:51        1.71
  WS02004403           JUNCTION     0.74     1.65     7.58     0  01:49        1.64
  WS02004404           JUNCTION     0.81     1.66     7.51     0  01:50        1.65
  WS02004405           JUNCTION     0.81     1.61     7.46     0  01:50        1.60
  WS02004406           JUNCTION     0.80     1.51     7.34     0  01:50        1.50
  WS02004407           JUNCTION     0.23     0.86     7.17     0  01:50        0.86
  WS02004409           JUNCTION     0.48     1.34     7.11     0  01:50        1.34
  WS02004410           JUNCTION     0.50     1.26     6.98     0  01:50        1.26
  WS02004411           JUNCTION     0.51     1.17     6.85     0  01:50        1.17
  WS02004412           JUNCTION     0.52     1.08     6.72     0  01:50        1.08
  WS02004413           JUNCTION     0.67     1.13     6.60     0  01:50        1.13
  WS02006109           JUNCTION     0.85     2.64     9.26     0  01:48        2.64
  WS02006110           JUNCTION     0.81     2.36     8.94     0  01:50        2.35
  WS02006111           JUNCTION     0.34     1.64     8.35     0  01:51        1.63
  WS02006112           JUNCTION     0.90     2.68     8.56     0  00:00        2.25
  WS02006113           JUNCTION     0.41     1.76     8.65     0  01:49        1.75
  WS02006115           JUNCTION     0.61     1.85     7.99     0  01:50        1.84
  WS02006116           JUNCTION     0.69     1.85     7.89     0  01:50        1.84
  WS02006228           JUNCTION     0.88     3.03     9.68     0  01:48        3.00
  WS02006229           JUNCTION     0.88     3.25     9.94     0  01:48        3.18
  WS02006230           JUNCTION     0.83     2.65     9.39     0  01:46        2.65
  WS02006231           JUNCTION     0.59     2.24     9.36     0  01:40        2.24
  WS02006232           JUNCTION     0.70     2.18     9.22     0  01:40        2.18
  WS02006234           JUNCTION     0.59     1.96     9.12     0  01:40        1.96
  WS02006235           JUNCTION     0.61     2.00     9.16     0  01:40        2.00
  WS02006238           JUNCTION     0.64     2.15     9.29     0  01:40        2.15
  WS02006239           JUNCTION     0.59     2.03     9.24     0  01:40        2.03
  WS02006240           JUNCTION     0.54     2.06     9.36     0  01:40        2.06
  WS02006242           JUNCTION     0.59     1.55     8.82     0  01:35        1.55
  WS02006243           JUNCTION     0.49     1.48     8.90     0  01:35        1.48
  WS02006245           JUNCTION     0.48     1.42     8.91     0  01:35        1.41
  WS02006247           JUNCTION     0.50     1.36     8.86     0  01:35        1.23
  WS02006248           JUNCTION     0.45     1.10     8.69     0  01:35        1.10
  WS02006249           JUNCTION     0.48     1.09     8.69     0  01:35        1.09
  WS02006251           JUNCTION     0.53     2.21     9.88     0  01:50        2.07
  WS02006252           JUNCTION     0.39     1.50     9.74     0  00:40        1.50
  WS02006253           JUNCTION     0.57     3.39    11.04     0  01:50        2.70
  WS02006256           JUNCTION     0.91     2.35     9.28     0  00:10        2.35
  WS02006280           JUNCTION     0.20     1.78    10.05     0  01:48        1.70
  WS02006284           JUNCTION     0.46     1.96    10.35     0  01:48        1.89
  WS02006287           JUNCTION     0.20     1.84    10.79     0  01:48        1.84
  WSF200               JUNCTION     0.21     0.51     5.74     0  01:54        0.51
  YS02001580           JUNCTION     0.05     1.05     9.59     0  01:48        0.77
  YS02001583           JUNCTION     0.08     1.14     9.64     0  01:48        0.82
  YS02001586           JUNCTION     0.12     1.13     9.30     0  01:47        1.13
  YS02001590           JUNCTION     0.20     1.40     9.26     0  01:48        1.37
  YS02001593           JUNCTION     0.14     1.46     9.32     0  01:46        1.46
  YS02001596           JUNCTION     0.19     1.80     9.22     0  01:46        1.80
  YS02001600           JUNCTION     0.23     1.87     9.00     0  01:46        1.87
  YS02001601           JUNCTION     0.40     2.06     8.90     0  01:46        2.06
  YS02001602           JUNCTION     0.33     1.87     8.77     0  01:48        1.87
  YS02001605           JUNCTION     0.30     1.78     8.68     0  01:48        1.78
  YS02001607           JUNCTION     0.31     1.66     8.51     0  01:48        1.64
  YS02001610           JUNCTION     0.35     1.68     8.48     0  01:48        1.68
  YS02001613           JUNCTION     0.31     1.67     8.51     0  01:48        1.65
  YS02001616           JUNCTION     0.25     1.61     8.52     0  01:48        1.58
  YS02001619           JUNCTION     0.23     1.61     8.54     0  01:48        1.56
  YS02001622           JUNCTION     0.21     1.62     8.52     0  01:48        1.55
  YS02001625           JUNCTION     0.46     1.78     8.38     0  01:48        1.78
  YS02001629           JUNCTION     0.31     1.85     8.40     0  01:48        1.85
  YS02001633           JUNCTION     0.38     2.05     8.50     0  01:51        2.01
  YS02001641           JUNCTION     0.37     1.98     8.42     0  01:51        1.96
  YS02001644           JUNCTION     0.37     1.92     8.35     0  01:51        1.92
  YS02001647           JUNCTION     0.17     1.73     8.34     0  01:52        1.66
  YS02001649           JUNCTION     0.19     1.90     8.29     0  01:52        1.79
  YS02001652           JUNCTION     0.11     1.86     8.46     0  01:50        1.60
  YS02001655           JUNCTION     0.08     2.20     9.05     0  01:50        1.36
  YS02001658           JUNCTION     0.06     1.73     8.87     0  01:51        1.08
  YS02001661           JUNCTION     0.11     0.85     8.26     0  01:52        0.82
  YS02001664           JUNCTION     0.04     0.27     8.20     0  01:51        0.27
  YS02001745           JUNCTION     0.04     0.58     8.10     0  01:52        0.54
  YS02001748           JUNCTION     0.05     1.03     8.11     0  01:52        1.02
  YS02001751           JUNCTION     0.06     1.97     8.84     0  01:51        1.20
  YS02001754           JUNCTION     0.08     1.91     8.52     0  01:51        1.46
  YS02001757           JUNCTION     0.20     1.85     8.11     0  01:52        1.78
  YS02001759           JUNCTION     0.14     1.81     8.17     0  01:52        1.73
  YS02001762           JUNCTION     0.14     1.84     8.24     0  01:50        1.72
  YS02001765           JUNCTION     0.13     1.97     8.42     0  01:50        1.68
  YS02001767           JUNCTION     0.13     1.94     8.43     0  01:50        1.66
  YS02001770           JUNCTION     0.14     1.92     8.41     0  01:50        1.78
  YS02001774           JUNCTION     0.20     1.91     8.33     0  01:50        1.87
  YS02001779           JUNCTION     0.06     1.68     8.37     0  01:50        1.63
  YS02001783           JUNCTION     0.17     1.79     7.93     0  02:00        1.47
  YS02001784           JUNCTION     0.19     1.78     7.85     0  02:00        1.41
  YS02001786           JUNCTION     0.16     1.64     7.67     0  02:00        1.26
  YS02001788           JUNCTION     0.12     1.59     7.57     0  02:00        1.13
  YS02001790           JUNCTION     0.14     1.66     7.30     0  02:00        1.29
  YS02001791           JUNCTION     0.10     1.51     6.98     0  02:00        1.27
  YS02001793           JUNCTION     0.08     1.92     6.75     0  02:00        1.80
  YS02001882           JUNCTION     0.22     1.83     8.55     0  01:48        1.64
  YS02001884           JUNCTION     0.31     1.93     8.55     0  01:48        1.73
  YS02001887           JUNCTION     0.38     1.94     8.48     0  01:48        1.81
  YS02001890           JUNCTION     0.41     1.81     8.32     0  01:48        1.81
  YS02001895           JUNCTION     0.19     1.75     8.50     0  01:48        1.54
  YS02001898           JUNCTION     0.20     1.75     8.49     0  01:48        1.56
  YS02001901           JUNCTION     0.30     1.83     8.44     0  01:48        1.66
  YS02001904           JUNCTION     0.29     1.66     8.29     0  01:48        1.63
  YS02001907           JUNCTION     0.60     1.96     8.25     0  01:49        1.96
  YS02001910           JUNCTION     0.40     2.02     8.52     0  01:50        1.82
  YS02001915           JUNCTION     0.22     1.97     8.69     0  01:50        1.68
  YS02001918           JUNCTION     0.11     1.81     8.88     0  01:50        1.39
  YS02001920           JUNCTION     0.19     2.11     9.12     0  01:50        1.47
  YS02001923           JUNCTION     0.08     2.03     9.29     0  01:50        1.25
  YS02001926           JUNCTION     0.12     1.90     9.35     0  01:50        1.08
  YS02001929           JUNCTION     0.06     1.78     9.47     0  01:50        0.85
  YS02006553           JUNCTION     0.60     2.04     8.32     0  02:00        1.96
  YS02006556           JUNCTION     0.57     2.10     8.41     0  02:00        1.93
  YS02006558           JUNCTION     0.62     2.17     8.43     0  02:00        1.96
  YS02006561           JUNCTION     0.11     1.34     8.00     0  02:00        1.08
  YS02163301           JUNCTION     0.33     1.95     8.46     0  01:48        1.91
  YS02163601           JUNCTION     0.42     2.08     8.48     0  01:51        2.04
  YS02164001           JUNCTION     0.36     2.00     8.46     0  01:51        1.97
  YSB1154              JUNCTION     0.34     1.95    11.00     0  01:48        1.85
  YSB1171              JUNCTION     0.49     1.95    10.85     0  01:48        1.95
  YSB1174              JUNCTION     0.30     1.82    10.93     0  01:48        1.76
  YSB6556              JUNCTION     0.24     1.78    10.95     0  01:48        1.71
  CC-1                 OUTFALL      0.00     0.00     0.00     0  00:00        0.00
  CC-2                 OUTFALL      0.00     0.00     0.00     0  00:00        0.00
  JK-1                 OUTFALL      0.00     0.00     0.00     0  00:00        0.00
  JK-2                 OUTFALL      0.00     0.00     0.00     0  00:00        0.00
  WSC                  OUTFALL      0.28     0.51     1.18     0  01:57        0.51
  CC-storage           STORAGE      0.24     1.20     6.70     0  02:40        1.20
  JK-storage           STORAGE      0.21     5.80     6.60     0  02:00        5.80
  XR-storage           STORAGE      7.96     9.26     7.26     0  08:00        9.26
  
  
  *******************
  Node Inflow Summary
  *******************
  
  -------------------------------------------------------------------------------------------------
                                  Maximum  Maximum                  Lateral       Total        Flow
                                  Lateral    Total  Time of Max      Inflow      Inflow     Balance
                                   Inflow   Inflow   Occurrence      Volume      Volume       Error
  Node                 Type           LPS      LPS  days hr:min    10^6 ltr    10^6 ltr     Percent
  -------------------------------------------------------------------------------------------------
  HS02004478           JUNCTION      0.00  2233.03     0  01:52           0        7.13      -0.017
  HS02004479           JUNCTION      0.00   509.38     0  01:50           0        0.79       0.063
  HS02004480           JUNCTION      0.00  2182.36     0  01:48           0        5.56       0.023
  HS02004770           JUNCTION    951.66   951.66     0  01:51         1.8        2.04       0.141
  HS02004777           JUNCTION      0.03   878.98     0  01:47    0.000864        1.68       0.306
  HS02004785           JUNCTION      0.15   876.50     0  01:47     0.00432        1.68       0.030
  HS02004788           JUNCTION    348.68  1123.78     0  01:47       0.717         2.4      -0.014
  HS02004792           JUNCTION   1131.70  1840.56     0  01:51        2.31         4.7      -0.011
  HS02004799           JUNCTION    238.28  1739.93     0  01:48       0.403        4.78       0.052
  HS02004802           JUNCTION      0.00   631.85     0  01:52           0         1.6       0.236
  HS02004807           JUNCTION    300.41   631.80     0  01:52       0.493        1.65       0.213
  HS02004817           JUNCTION      0.60   497.39     0  01:48      0.0173        1.22       1.340
  HS02004824           JUNCTION    359.58   752.96     0  01:48        0.87        1.41       0.033
  HS02004830           JUNCTION      0.15   751.73     0  01:48     0.00432       0.756       0.171
  HS02004837           JUNCTION    274.30   996.13     0  01:48       0.651        1.07       0.039
  HS02004842           JUNCTION      0.00   972.04     0  01:48           0       0.732       1.753
  HS02004848           JUNCTION    319.68  1212.79     0  01:48       0.817        1.39      -0.002
  HS02004852           JUNCTION      0.00  1152.51     0  01:49           0        1.24       0.008
  HS02004856           JUNCTION    121.27  1250.79     0  01:49       0.203        1.45       0.098
  HS02004862           JUNCTION    149.72  1346.73     0  01:50       0.349         1.8      -0.001
  HS02004870           JUNCTION    162.51  1489.10     0  01:50        0.27        2.06      -0.012
  HS02004876           JUNCTION    155.08  1540.86     0  01:50       0.279        2.34       0.012
  HS02004881           JUNCTION     89.02  1496.70     0  01:50       0.143        2.48      -0.033
  HS02004901           JUNCTION    235.05   445.06     0  01:54       0.406       0.562       0.267
  WS02001211           JUNCTION      7.35   204.68     0  03:06       0.212        5.44       0.612
  WS02001212           JUNCTION      0.00   209.34     0  03:06           0        5.41       0.290
  WS02001213           JUNCTION      0.00   212.77     0  03:06           0        5.39       0.334
  WS02003059           JUNCTION      0.00   217.02     0  03:06           0        5.38       0.599
  WS02003060           JUNCTION     16.53  1467.10     0  01:55       0.476        15.1       0.102
  WS02003066           JUNCTION      0.00  1262.63     0  01:51           0         9.3       0.018
  WS02003067           JUNCTION      0.00  1261.69     0  01:50           0         9.3       0.050
  WS02003069           JUNCTION      0.32  1467.14     0  01:55     0.00922        15.1       0.106
  WS02003072           JUNCTION      0.00  1467.14     0  01:56           0        15.1       0.143
  WS02003073           JUNCTION      1.82  1469.05     0  01:56      0.0524        15.1       0.148
  WS02004138           JUNCTION      0.00   190.00     0  00:29           0        5.25       0.057
  WS02004139           JUNCTION      0.32   190.32     0  00:32     0.00924        5.26       0.508
  WS02004401           JUNCTION      0.00  1260.39     0  01:51           0        9.42       0.127
  WS02004402           JUNCTION      0.00  1260.43     0  01:51           0        9.41       0.125
  WS02004403           JUNCTION      0.00  1260.32     0  01:51           0         9.4       0.121
  WS02004404           JUNCTION      0.16  1260.87     0  01:50     0.00467         9.4       0.097
  WS02004405           JUNCTION      0.04  1260.73     0  01:50      0.0011        9.39       0.143
  WS02004406           JUNCTION      0.00  1260.56     0  01:50           0        9.37       0.241
  WS02004407           JUNCTION      0.00  1260.50     0  01:51           0        9.35       0.021
  WS02004409           JUNCTION      0.00  1261.92     0  01:51           0        9.34       0.040
  WS02004410           JUNCTION      0.00  1261.63     0  01:51           0        9.34       0.059
  WS02004411           JUNCTION      0.00  1261.85     0  01:50           0        9.33       0.071
  WS02004412           JUNCTION      0.00  1261.73     0  01:50           0        9.33       0.095
  WS02004413           JUNCTION      0.00  1261.65     0  01:50           0        9.32       0.160
  WS02006109           JUNCTION      1.23  1308.01     0  00:00      0.0354        9.18       0.082
  WS02006110           JUNCTION      0.00  1120.74     0  02:03           0        9.04      -0.381
  WS02006111           JUNCTION      0.00  1176.04     0  00:00           0        9.07      -0.421
  WS02006112           JUNCTION    191.21  2307.30     0  00:00       0.333        9.44       0.007
  WS02006113           JUNCTION      0.00  1120.89     0  02:03           0        9.03      -0.491
  WS02006115           JUNCTION      0.00  2152.75     0  00:00           0        9.42       0.053
  WS02006116           JUNCTION      0.00  1260.52     0  01:51           0        9.42      -0.018
  WS02006228           JUNCTION      0.00  1252.58     0  01:52           0        9.12       0.030
  WS02006229           JUNCTION      0.00  2233.76     0  01:52           0        10.8       0.086
  WS02006230           JUNCTION     10.28   990.43     0  01:51       0.296         5.3       0.104
  WS02006231           JUNCTION      0.00   453.25     0  01:58           0        4.39      -0.063
  WS02006232           JUNCTION      0.00   453.32     0  01:59           0         4.4       0.176
  WS02006234           JUNCTION      0.00   453.17     0  01:53           0         4.4      -0.038
  WS02006235           JUNCTION      0.00   445.57     0  03:10           0        4.46       0.090
  WS02006238           JUNCTION      0.00   416.03     0  02:06           0        3.93      -0.239
  WS02006239           JUNCTION      0.00   415.59     0  02:06           0        3.91      -0.222
  WS02006240           JUNCTION      0.00   415.25     0  02:05           0        3.91       0.012
  WS02006242           JUNCTION      0.00   417.62     0  01:35           0        3.92       0.081
  WS02006243           JUNCTION      0.00   431.96     0  01:35           0        3.61      -0.118
  WS02006245           JUNCTION      0.00   442.21     0  01:35           0        3.62       0.248
  WS02006247           JUNCTION      0.00   452.05     0  01:35           0        3.62       0.041
  WS02006248           JUNCTION      0.00   467.45     0  01:35           0        3.85       0.007
  WS02006249           JUNCTION      0.00  1337.75     0  01:50           0        6.52       0.110
  WS02006251           JUNCTION      0.08  1491.24     0  01:50     0.00222        6.57      -0.003
  WS02006252           JUNCTION      0.00   555.35     0  01:50           0        4.13      -0.043
  WS02006253           JUNCTION     24.08  1487.71     0  01:50      0.0345        2.56       0.042
  WS02006256           JUNCTION      0.00   300.00     0  01:42           0        1.43      -0.086
  WS02006280           JUNCTION      0.00  2232.68     0  01:52           0        7.12       0.008
  WS02006284           JUNCTION      0.10  2232.49     0  01:52     0.00275        7.12      -0.005
  WS02006287           JUNCTION      0.00  2232.52     0  01:52           0        7.12       0.008
  WSF200               JUNCTION      0.00  1262.28     0  01:51           0         9.3       0.009
  YS02001580           JUNCTION      0.00   171.40     0  01:47           0     0.00464      -2.734
  YS02001583           JUNCTION      0.00   268.57     0  01:48           0      0.0148     -10.651
  YS02001586           JUNCTION    410.39   410.45     0  01:54        1.12        1.13       0.151
  YS02001590           JUNCTION      0.00   317.94     0  01:55           0        1.06      -0.051
  YS02001593           JUNCTION      0.00   318.08     0  01:59           0        1.06      -0.004
  YS02001596           JUNCTION      0.00   318.01     0  01:59           0        1.06      -0.006
  YS02001600           JUNCTION      0.00   317.97     0  02:00           0        1.06      -0.003
  YS02001601           JUNCTION    778.59  1096.33     0  01:52        1.59        2.65       0.021
  YS02001602           JUNCTION      0.00   574.10     0  01:47           0           2       0.019
  YS02001605           JUNCTION      0.00   573.97     0  01:47           0        1.94       0.020
  YS02001607           JUNCTION      0.00   573.94     0  01:47           0        1.94       0.093
  YS02001610           JUNCTION      0.00   548.09     0  01:48           0        1.94       0.108
  YS02001613           JUNCTION      0.00   557.81     0  01:48           0        1.79       0.090
  YS02001616           JUNCTION      0.00   569.86     0  01:48           0        1.79       0.022
  YS02001619           JUNCTION    722.27   956.56     0  01:48        1.78        3.57      -0.012
  YS02001622           JUNCTION      0.00   954.59     0  01:48           0        3.57      -0.012
  YS02001625           JUNCTION      0.00   949.50     0  01:48           0        3.57       0.239
  YS02001629           JUNCTION      0.00   950.15     0  01:48           0        3.33       0.015
  YS02001633           JUNCTION    577.93  1419.23     0  01:49        1.15        4.47       0.075
  YS02001641           JUNCTION      0.00  1418.16     0  01:49           0        4.48       0.059
  YS02001644           JUNCTION    519.02  1888.68     0  01:49       0.993        5.46       0.060
  YS02001647           JUNCTION      0.00  1888.28     0  01:49           0        5.45       0.003
  YS02001649           JUNCTION      0.00  2152.47     0  01:49           0        6.35       0.008
  YS02001652           JUNCTION      0.00   604.24     0  01:53           0       0.895      -0.135
  YS02001655           JUNCTION      0.15   604.99     0  01:53     0.00443       0.896       0.023
  YS02001658           JUNCTION      0.00   578.03     0  01:53           0       0.891      -0.020
  YS02001661           JUNCTION      0.00   507.58     0  01:51           0       0.891       0.038
  YS02001664           JUNCTION    503.79   503.79     0  01:51       0.891       0.891      -0.003
  YS02001745           JUNCTION    338.61   338.61     0  01:51       0.551       0.551       0.172
  YS02001748           JUNCTION      0.04   605.83     0  01:53      0.0013       0.552      -0.243
  YS02001751           JUNCTION      0.01   550.37     0  01:54    0.000317       0.558       0.080
  YS02001754           JUNCTION      0.26   418.75     0  01:53     0.00749        0.57      -0.163
  YS02001757           JUNCTION      0.00  3217.96     0  01:53           0        8.85       0.013
  YS02001759           JUNCTION    465.13  1155.58     0  01:50       0.757        1.94      -0.006
  YS02001762           JUNCTION      0.00   686.91     0  01:50           0        1.18      -0.000
  YS02001765           JUNCTION      0.00   682.42     0  01:50           0        1.18       0.014
  YS02001767           JUNCTION      0.54   678.63     0  01:50      0.0154        1.18       0.005
  YS02001770           JUNCTION    654.29   671.37     0  01:50        1.17        1.21      -0.005
  YS02001774           JUNCTION      0.00   424.71     0  01:50           0      0.0599       1.807
  YS02001779           JUNCTION      0.01   431.32     0  01:50    0.000144       0.019      -3.156
  YS02001783           JUNCTION      0.00  1150.92     0  01:51           0        3.29       0.003
  YS02001784           JUNCTION      1.06  1152.26     0  01:51      0.0305        3.32       0.018
  YS02001786           JUNCTION      0.06  1151.98     0  01:51     0.00162        3.32       0.017
  YS02001788           JUNCTION      0.07  1152.63     0  01:50     0.00204        3.32       0.004
  YS02001790           JUNCTION      0.15  1165.59     0  01:50     0.00446        3.33       0.012
  YS02001791           JUNCTION      0.00  1276.40     0  01:51           0        3.33      -0.016
  YS02001793           JUNCTION      0.00  1231.93     0  01:58           0        3.33      -0.013
  YS02001882           JUNCTION      0.00    95.91     0  01:48           0      0.0136       3.082
  YS02001884           JUNCTION      0.00   141.88     0  01:48           0      0.0493       5.288
  YS02001887           JUNCTION    522.49   527.28     0  01:48       0.803       0.836       0.531
  YS02001890           JUNCTION      0.00   547.10     0  01:48           0       0.796       0.619
  YS02001895           JUNCTION      0.00   558.16     0  01:48           0        0.79       0.199
  YS02001898           JUNCTION      0.00   540.51     0  01:49           0       0.788       0.009
  YS02001901           JUNCTION      0.00   550.82     0  01:49           0       0.791       0.415
  YS02001904           JUNCTION      0.00   553.64     0  01:49           0       0.795       0.330
  YS02001907           JUNCTION      0.00  1505.16     0  01:51           0        2.56       0.673
  YS02001910           JUNCTION      0.00  1000.26     0  01:51           0        1.77       0.389
  YS02001915           JUNCTION    566.01   999.97     0  01:51        1.11        1.82       0.082
  YS02001918           JUNCTION      0.00   564.10     0  01:49           0       0.749       0.012
  YS02001920           JUNCTION      2.87   531.77     0  01:49      0.0827       0.726       0.117
  YS02001923           JUNCTION      0.04   637.15     0  01:49     0.00109       0.626      -0.101
  YS02001926           JUNCTION      0.05   937.70     0  01:49      0.0015       0.604      -0.048
  YS02001929           JUNCTION    268.86   743.97     0  01:50       0.583       0.589      -0.142
  YS02006553           JUNCTION      0.00   786.28     0  02:08           0        2.17       0.536
  YS02006556           JUNCTION      0.00   786.60     0  02:07           0        2.18       0.353
  YS02006558           JUNCTION    669.75  1164.96     0  01:49        1.17        3.32       0.107
  YS02006561           JUNCTION      0.00  1164.67     0  01:49           0        3.29      -0.005
  YS02163301           JUNCTION      0.00   928.65     0  02:06           0        3.33       0.041
  YS02163601           JUNCTION      0.11  1418.77     0  01:49     0.00317        4.47       0.106
  YS02164001           JUNCTION      0.00  1418.92     0  01:49           0        4.47       0.049
  YSB1154              JUNCTION    270.08   270.08     0  01:51       0.482       0.483       0.290
  YSB1171              JUNCTION      0.00   509.60     0  01:50           0       0.855       0.701
  YSB1174              JUNCTION    244.18   244.18     0  01:50       0.366       0.366       0.327
  YSB6556              JUNCTION      0.00   270.25     0  01:51           0       0.484       0.204
  CC-1                 OUTFALL       0.00   683.00     0  00:05           0         6.9       0.000
  CC-2                 OUTFALL       0.00   683.00     0  00:30           0       0.824       0.000
  JK-1                 OUTFALL       0.00  1000.00     0  01:45           0        1.46       0.000
  JK-2                 OUTFALL       0.00  1000.00     0  00:05           0       0.737       0.000
  WSC                  OUTFALL       0.00  1469.36     0  01:57           0        15.1       0.000
  CC-storage           STORAGE       0.00  3219.42     0  01:53           0        11.1      -6.534
  JK-storage           STORAGE       0.00  1296.58     0  01:55           0        3.48     -10.682
  XR-storage           STORAGE     200.00   200.00     0  00:00        5.76        6.36       0.001
  
  
  **********************
  Node Surcharge Summary
  **********************
  
  Surcharging occurs when water rises above the top of the highest conduit.
  ---------------------------------------------------------------------
                                               Max. Height   Min. Depth
                                   Hours       Above Crown    Below Rim
  Node                 Type      Surcharged         Meters       Meters
  ---------------------------------------------------------------------
  HS02004478           JUNCTION        0.33          0.707        0.233
  HS02004479           JUNCTION        0.45          0.954        0.096
  HS02004480           JUNCTION        0.49          1.017        0.083
  HS02004770           JUNCTION        0.41          0.720        0.000
  HS02004777           JUNCTION        0.41          0.780        0.000
  HS02004785           JUNCTION        0.36          0.790        0.000
  HS02004788           JUNCTION        0.35          0.720        0.000
  HS02004792           JUNCTION        0.46          0.900        0.000
  HS02004799           JUNCTION        0.56          1.060        0.000
  HS02004802           JUNCTION        0.49          1.077        0.133
  HS02004807           JUNCTION        0.48          1.220        0.000
  HS02004817           JUNCTION        1.01          1.740        0.000
  HS02004824           JUNCTION        0.35          1.310        0.000
  HS02004830           JUNCTION        0.33          1.330        0.000
  HS02004837           JUNCTION        0.28          1.340        0.000
  HS02004842           JUNCTION        0.41          1.520        0.000
  HS02004848           JUNCTION        0.25          1.313        0.057
  HS02004852           JUNCTION        0.28          1.359        0.061
  HS02004856           JUNCTION        0.26          1.300        0.000
  HS02004862           JUNCTION        0.30          1.300        0.000
  HS02004870           JUNCTION        0.32          1.400        0.000
  HS02004876           JUNCTION        0.39          1.560        0.000
  HS02004881           JUNCTION        0.37          1.450        0.000
  HS02004901           JUNCTION        0.41          0.720        0.000
  WS02004401           JUNCTION        1.59          0.768        0.892
  WS02004402           JUNCTION        1.62          0.713        1.027
  WS02004403           JUNCTION        1.63          0.649        1.381
  WS02004404           JUNCTION        1.81          0.663        2.117
  WS02004405           JUNCTION        1.76          0.615        2.185
  WS02004406           JUNCTION        1.73          0.512        1.938
  WS02004409           JUNCTION        0.83          0.342        2.018
  WS02004410           JUNCTION        0.78          0.256        2.284
  WS02004411           JUNCTION        0.69          0.173        2.357
  WS02004412           JUNCTION        0.59          0.083        2.227
  WS02004413           JUNCTION        1.17          0.132        2.068
  WS02006109           JUNCTION        2.41          1.820        0.000
  WS02006110           JUNCTION        2.14          1.450        0.400
  WS02006111           JUNCTION        1.07          0.831        1.039
  WS02006112           JUNCTION        2.33          1.680        0.000
  WS02006113           JUNCTION        1.16          0.958        0.972
  WS02006115           JUNCTION        1.43          0.837        1.413
  WS02006116           JUNCTION        1.47          0.787        1.503
  WS02006228           JUNCTION        2.41          2.200        0.000
  WS02006229           JUNCTION        0.73          1.070        0.000
  WS02006230           JUNCTION        1.93          1.570        0.000
  WS02006231           JUNCTION        2.27          1.530        0.000
  WS02006232           JUNCTION        2.37          1.480        0.000
  WS02006234           JUNCTION        2.33          1.240        0.000
  WS02006235           JUNCTION        2.34          1.290        0.000
  WS02006238           JUNCTION        2.35          1.430        0.000
  WS02006239           JUNCTION        2.33          1.290        0.000
  WS02006240           JUNCTION        2.33          1.354        0.036
  WS02006242           JUNCTION        2.34          0.820        0.000
  WS02006243           JUNCTION        2.32          0.770        0.000
  WS02006245           JUNCTION        2.32          0.711        0.139
  WS02006247           JUNCTION        2.32          0.646        0.114
  WS02006248           JUNCTION        2.32          0.380        0.000
  WS02006249           JUNCTION        2.32          0.390        0.000
  WS02006251           JUNCTION        2.18          1.180        0.000
  WS02006252           JUNCTION        2.66          1.100        0.000
  WS02006253           JUNCTION        2.18          2.355        0.125
  WS02006256           JUNCTION        7.81          2.050        0.000
  WS02006280           JUNCTION        0.58          0.730        0.050
  WS02006284           JUNCTION        0.51          0.676        0.124
  WS02006287           JUNCTION        0.43          0.840        0.050
  YS02001580           JUNCTION        0.39          0.450        0.000
  YS02001583           JUNCTION        0.39          0.500        0.000
  YS02001586           JUNCTION        0.52          0.510        0.000
  YS02001590           JUNCTION        0.59          0.749        0.001
  YS02001593           JUNCTION        0.59          0.840        0.000
  YS02001596           JUNCTION        0.69          1.070        0.000
  YS02001600           JUNCTION        0.83          1.190        0.000
  YS02001601           JUNCTION        1.25          1.440        0.000
  YS02001602           JUNCTION        1.10          1.270        0.000
  YS02001605           JUNCTION        1.03          1.180        0.000
  YS02001607           JUNCTION        0.52          0.662        0.018
  YS02001610           JUNCTION        0.55          0.680        0.000
  YS02001613           JUNCTION        0.51          0.671        0.029
  YS02001616           JUNCTION        0.47          0.610        0.000
  YS02001619           JUNCTION        0.46          0.610        0.000
  YS02001622           JUNCTION        0.45          0.620        0.000
  YS02001625           JUNCTION        0.64          0.780        0.000
  YS02001629           JUNCTION        0.34          0.470        0.000
  YS02001633           JUNCTION        0.65          1.030        0.030
  YS02001641           JUNCTION        0.53          0.978        0.122
  YS02001644           JUNCTION        0.47          0.920        0.000
  YS02001647           JUNCTION        0.24          0.732        0.168
  YS02001649           JUNCTION        0.27          0.895        0.155
  YS02001652           JUNCTION        0.17          0.835        0.295
  YS02001655           JUNCTION        0.09          1.200        0.000
  YS02001658           JUNCTION        0.02          0.728        0.572
  YS02001751           JUNCTION        0.04          0.966        0.234
  YS02001754           JUNCTION        0.10          0.865        0.285
  YS02001757           JUNCTION        0.26          0.850        0.360
  YS02001759           JUNCTION        0.21          0.807        0.403
  YS02001762           JUNCTION        0.20          0.839        0.311
  YS02001765           JUNCTION        0.19          0.972        0.128
  YS02001767           JUNCTION        0.17          0.940        0.090
  YS02001770           JUNCTION        0.17          0.887        0.033
  YS02001774           JUNCTION        0.21          0.909        0.141
  YS02001779           JUNCTION        0.12          0.680        0.000
  YS02001783           JUNCTION        0.41          0.988        0.612
  YS02001784           JUNCTION        0.39          0.983        0.507
  YS02001786           JUNCTION        0.31          0.837        0.593
  YS02001788           JUNCTION        0.10          0.789        0.691
  YS02001790           JUNCTION        0.12          0.855        0.302
  YS02001791           JUNCTION        0.11          0.712        1.208
  YS02001793           JUNCTION        0.15          0.915        1.685
  YS02001882           JUNCTION        0.37          0.830        0.000
  YS02001884           JUNCTION        0.37          0.870        0.000
  YS02001887           JUNCTION        0.40          0.889        0.061
  YS02001890           JUNCTION        0.41          0.760        0.000
  YS02001895           JUNCTION        0.36          0.750        0.000
  YS02001898           JUNCTION        0.35          0.723        0.017
  YS02001901           JUNCTION        0.39          0.834        0.036
  YS02001904           JUNCTION        0.38          0.656        0.194
  YS02001907           JUNCTION        0.58          0.950        0.000
  YS02001910           JUNCTION        0.44          1.017        0.083
  YS02001915           JUNCTION        0.36          0.970        0.030
  YS02001918           JUNCTION        0.30          0.810        0.000
  YS02001920           JUNCTION        0.31          1.109        0.031
  YS02001923           JUNCTION        0.01          0.820        0.000
  YS02001926           JUNCTION        0.01          0.900        0.000
  YS02001929           JUNCTION        0.01          0.780        0.000
  YS02006553           JUNCTION        0.59          1.036        0.154
  YS02006556           JUNCTION        0.50          1.056        0.294
  YS02006558           JUNCTION        0.50          1.067        0.333
  YS02006561           JUNCTION        0.28          0.544        0.606
  YS02163301           JUNCTION        0.63          0.946        0.084
  YS02163601           JUNCTION        0.67          1.080        0.000
  YS02164001           JUNCTION        0.55          0.998        0.102
  YSB1154              JUNCTION        0.67          1.245        0.155
  YSB1171              JUNCTION        0.67          1.100        0.000
  YSB1174              JUNCTION        0.59          1.120        0.130
  YSB6556              JUNCTION        0.54          1.083        0.017
  
  
  *********************
  Node Flooding Summary
  *********************
  
  Flooding refers to all water that overflows a node, whether it ponds or not.
  --------------------------------------------------------------------------
                                                             Total   Maximum
                                 Maximum   Time of Max       Flood    Ponded
                        Hours       Rate    Occurrence      Volume     Depth
  Node                 Flooded       LPS   days hr:min    10^6 ltr    Meters
  --------------------------------------------------------------------------
  HS02004770              0.20    518.12      0  01:50       0.199     0.000
  HS02004777              0.01     36.09      0  01:47       0.000     0.000
  HS02004785              0.01    123.05      0  01:47       0.000     0.000
  HS02004788              0.01    669.85      0  01:47       0.007     0.000
  HS02004792              0.21    686.90      0  01:51       0.324     0.000
  HS02004799              0.04     79.05      0  01:50       0.003     0.000
  HS02004807              0.01      9.78      0  01:50       0.000     0.000
  HS02004817              0.01     22.74      0  01:48       0.000     0.000
  HS02004824              0.01     43.74      0  01:48       0.000     0.000
  HS02004830              0.01     16.27      0  01:48       0.000     0.000
  HS02004837              0.01    250.25      0  01:48       0.000     0.000
  HS02004842              0.01     48.84      0  01:50       0.000     0.000
  HS02004856              0.01    186.38      0  01:50       0.001     0.000
  HS02004862              0.01    174.74      0  01:50       0.002     0.000
  HS02004870              0.01    469.06      0  01:50       0.001     0.000
  HS02004876              0.01     42.41      0  01:50       0.000     0.000
  HS02004881              0.01    600.96      0  01:50       0.001     0.000
  HS02004901              0.28    445.06      0  01:54       0.322     0.000
  WS02006109              0.26    182.54      0  01:51       0.108     0.000
  WS02006112              0.01   1153.65      0  00:00       0.035     0.000
  WS02006228              0.01      5.04      0  01:48       0.000     0.000
  WS02006229              0.01     11.60      0  01:48       0.000     0.000
  WS02006230              0.51    537.31      0  01:52       0.627     0.000
  WS02006231              0.01      0.63      0  01:40       0.000     0.000
  WS02006232              0.12      0.95      0  01:45       0.000     0.000
  WS02006234              0.58    128.59      0  01:52       0.204     0.000
  WS02006235              0.01     25.13      0  03:00       0.000     0.000
  WS02006238              0.01      1.24      0  01:40       0.000     0.000
  WS02006239              0.01     36.53      0  03:00       0.000     0.000
  WS02006242              0.70    137.57      0  02:06       0.300     0.000
  WS02006243              0.01     49.81      0  01:35       0.000     0.000
  WS02006248              1.08    343.09      0  01:46       1.034     0.000
  WS02006249              2.08   1274.90      0  01:50       3.468     0.000
  WS02006251              0.01    112.43      0  01:50       0.000     0.000
  WS02006252              0.21    554.32      0  01:50       0.123     0.000
  WS02006256              1.11    280.26      0  02:05       0.635     0.000
  YS02001580              0.01    120.17      0  01:48       0.001     0.000
  YS02001583              0.01    199.41      0  01:48       0.000     0.000
  YS02001586              0.27    133.61      0  01:48       0.058     0.000
  YS02001593              0.01     29.75      0  01:46       0.000     0.000
  YS02001596              0.01     11.16      0  01:46       0.000     0.000
  YS02001600              0.01      5.14      0  01:46       0.000     0.000
  YS02001601              0.45    698.45      0  01:52       0.651     0.000
  YS02001602              0.28     61.96      0  02:02       0.057     0.000
  YS02001605              0.01      3.19      0  01:48       0.000     0.000
  YS02001610              0.25    235.77      0  01:54       0.143     0.000
  YS02001616              0.01     44.01      0  01:48       0.000     0.000
  YS02001619              0.01     88.44      0  01:48       0.000     0.000
  YS02001622              0.01    228.73      0  01:48       0.000     0.000
  YS02001625              0.20    689.47      0  01:53       0.235     0.000
  YS02001629              0.02    333.28      0  01:48       0.003     0.000
  YS02001644              0.01     26.94      0  01:52       0.000     0.000
  YS02001655              0.01    240.49      0  01:50       0.000     0.000
  YS02001779              0.01    386.28      0  01:50       0.003     0.000
  YS02001882              0.01     27.93      0  01:48       0.000     0.000
  YS02001884              0.01     22.82      0  01:48       0.000     0.000
  YS02001890              0.02    119.76      0  01:48       0.001     0.000
  YS02001895              0.01     68.84      0  01:48       0.000     0.000
  YS02001907              0.26   1023.05      0  01:51       0.385     0.000
  YS02001918              0.01    157.71      0  01:50       0.002     0.000
  YS02001923              0.01    285.68      0  01:50       0.001     0.000
  YS02001926              0.01    678.04      0  01:50       0.001     0.000
  YS02001929              0.01    464.15      0  01:50       0.002     0.000
  YS02163601              0.01      3.66      0  01:51       0.000     0.000
  YSB1171                 0.12    264.16      0  01:52       0.067     0.000
  JK-storage              0.08   1038.78      0  02:00       0.274     0.000
  
  
  **********************
  Storage Volume Summary
  **********************
  
  ------------------------------------------------------------------------------------------------
                         Average    Avg   Evap  Exfil     Maximum    Max    Time of Max    Maximum
                          Volume   Pcnt   Pcnt   Pcnt      Volume   Pcnt     Occurrence    Outflow
  Storage Unit           1000 m   Full   Loss   Loss     1000 m   Full    days hr:min        LPS
  ------------------------------------------------------------------------------------------------
  CC-storage               0.680   10.6    0.0    0.0       3.339   52.1       0  02:40    1566.00
  JK-storage               0.010    3.6    0.0    0.0       0.291  100.0       0  02:00    1300.00
  XR-storage               0.955   66.3    0.0    0.0       1.111   77.2       0  08:00     190.00
  
  
  ***********************
  Outfall Loading Summary
  ***********************
  
  -----------------------------------------------------------
                         Flow       Avg       Max       Total
                         Freq      Flow      Flow      Volume
  Outfall Node           Pcnt       LPS       LPS    10^6 ltr
  -----------------------------------------------------------
  CC-1                  81.07    309.18    683.00       6.897
  CC-2                   5.85    524.82    683.00       0.824
  JK-1                  15.91    361.03   1000.00       1.457
  JK-2                  22.22    104.58   1000.00       0.737
  WSC                   99.99    549.89   1469.36      15.100
  -----------------------------------------------------------
  System                45.01   1849.50   3138.36      25.015
  
  
  ********************
  Link Flow Summary
  ********************
  
  -----------------------------------------------------------------------------
                                 Maximum  Time of Max   Maximum    Max/    Max/
                                  |Flow|   Occurrence   |Veloc|    Full    Full
  Link                 Type          LPS  days hr:min     m/sec    Flow   Depth
  -----------------------------------------------------------------------------
  1                    CONDUIT   1469.36     0  01:57      3.68    0.51    0.51
  HS02004478WS02006287 CONDUIT   2232.52     0  01:52      2.59    0.62    1.00
  HS02004479HS02004480 CONDUIT    510.26     0  01:50      0.73    0.49    1.00
  HS02004480HS02004478 CONDUIT   2179.09     0  01:48      3.11    9.18    1.00
  HS02004770HS02004777 CONDUIT    878.95     0  01:47      1.26    1.61    1.00
  HS02004777HS02004785 CONDUIT    876.35     0  01:47      1.31    1.08    1.00
  HS02004785HS02004788 CONDUIT    876.47     0  01:47      1.34    6.61    1.00
  HS02004788HS02004792 CONDUIT    823.06     0  02:04      1.44    0.54    1.00
  HS02004792HS02004799 CONDUIT   1545.08     0  01:47      2.21    0.95    1.00
  HS02004799HS02004480 CONDUIT   1738.91     0  01:48      2.48    2.20    1.00
  HS02004802HS02004478 CONDUIT    632.17     0  01:52      0.90    0.56    1.00
  HS02004807HS02004802 CONDUIT    631.85     0  01:52      0.90    1.21    1.00
  HS02004817HS02004807 CONDUIT    496.79     0  01:48      0.71    0.29    1.00
  HS02004817HS02004824 CONDUIT    497.37     0  01:48      0.71    0.22    1.00
  HS02004824HS02004830 CONDUIT    751.58     0  01:48      1.07    0.98    1.00
  HS02004830HS02004837 CONDUIT    766.55     0  01:48      1.17    0.76    1.00
  HS02004837HS02004842 CONDUIT    972.04     0  01:48      1.39    0.58    1.00
  HS02004842HS02004848 CONDUIT    970.19     0  01:48      1.56    0.56    1.00
  HS02004848HS02004852 CONDUIT   1152.51     0  01:49      1.73    1.30    1.00
  HS02004852HS02004856 CONDUIT   1134.47     0  01:49      1.62    1.30    1.00
  HS02004856HS02004862 CONDUIT   1206.95     0  01:50      1.74    1.20    1.00
  HS02004862HS02004870 CONDUIT   1327.91     0  01:50      1.94    1.43    1.00
  HS02004870HS02004876 CONDUIT   1389.89     0  01:50      2.09    0.92    1.00
  HS02004876HS02004881 CONDUIT   1407.70     0  01:50      2.47   14.97    1.00
  HS02004881HS02006253 CONDUIT   1464.32     0  01:50      2.09    0.29    1.00
  HS02004901HS02004770 CONDUIT    264.68     0  01:59      0.38    1.00    1.00
  WS02001211WS02001212 CONDUIT    209.34     0  03:06      0.54    0.16    0.68
  WS02001212WS02001213 CONDUIT    212.77     0  03:06      1.04    0.33    0.55
  WS02001213WS02003059 CONDUIT    217.02     0  03:06      0.46    0.36    0.88
  WS02003059WS02003060 CONDUIT    223.49     0  03:08      0.64    0.15    0.80
  WS02003060WS02003069 CONDUIT   1466.82     0  01:55      2.07    0.57    0.60
  WS02003066WSF200     CONDUIT   1262.28     0  01:51      3.28    0.21    0.38
  WS02003067WS02003066 CONDUIT   1262.63     0  01:51      1.97    0.40    0.55
  WS02003069WS02003072 CONDUIT   1467.14     0  01:56      1.88    0.71    0.65
  WS02003072WS02003073 CONDUIT   1467.23     0  01:56      2.03    3.17    0.61
  WS02004138WS02004139 CONDUIT    190.00     0  00:32      2.16    0.04    0.41
  WS02004139WS02001211 CONDUIT    197.33     0  03:06      0.54    0.25    0.60
  WS02004401WS02004402 CONDUIT   1260.43     0  01:51      2.07    1.51    1.00
  WS02004402WS02004403 CONDUIT   1260.32     0  01:51      1.84    1.81    1.00
  WS02004403WS02004404 CONDUIT   1260.71     0  01:50      1.68    0.91    1.00
  WS02004404WS02004405 CONDUIT   1260.69     0  01:50      1.86   12.35    1.00
  WS02004405WS02004406 CONDUIT   1260.56     0  01:50      1.80    2.49    1.00
  WS02004406WS02004407 CONDUIT   1260.50     0  01:51      1.73    0.56    0.93
  WS02004407WS02004409 CONDUIT   1261.92     0  01:51      1.93    0.45    0.93
  WS02004409WS02004410 CONDUIT   1261.63     0  01:51      1.61    1.63    1.00
  WS02004410WS02004411 CONDUIT   1261.85     0  01:50      1.61    1.72    1.00
  WS02004411WS02004412 CONDUIT   1261.73     0  01:50      1.61    1.79    1.00
  WS02004412WS02004413 CONDUIT   1261.65     0  01:50      1.61    0.84    1.00
  WS02004413WS02003067 CONDUIT   1261.69     0  01:50      1.97    0.54    0.76
  WS02006109WS02006110 CONDUIT   1306.78     0  00:00      3.15    2.51    1.00
  WS02006110WS02006113 CONDUIT   1120.89     0  02:03      2.23    1.02    1.00
  WS02006111WS02006112 CONDUIT   2307.30     0  00:00      9.18    1.10    1.00
  WS02006112WS02006115 CONDUIT   2152.75     0  00:00      2.85    1.27    1.00
  WS02006113WS02006111 CONDUIT   1176.04     0  00:00      2.75    1.41    1.00
  WS02006115WS02006116 CONDUIT   1260.52     0  01:51      1.81    1.62    1.00
  WS02006116WS02004401 CONDUIT   1260.39     0  01:51      2.21    1.74    1.00
  WS02006228WS02006109 CONDUIT   1252.49     0  01:52      2.49    5.47    1.00
  WS02006229WS02006228 CONDUIT   1252.58     0  01:52      2.49    4.15    1.00
  WS02006230WS02006229 CONDUIT    980.15     0  01:51      2.55   21.81    1.00
  WS02006231WS02006230 CONDUIT    453.25     0  01:58      1.37    6.88    1.00
  WS02006232WS02006231 CONDUIT    453.32     0  01:59      1.18    0.95    1.00
  WS02006234WS02006232 CONDUIT    453.17     0  01:53      1.35    0.92    1.00
  WS02006235WS02006234 CONDUIT    445.21     0  03:10      1.29    4.70    1.00
  WS02006238WS02006235 CONDUIT    416.03     0  02:06      1.62    0.93    1.00
  WS02006239WS02006238 CONDUIT    415.59     0  02:06      1.25    1.33    1.00
  WS02006240WS02006239 CONDUIT    415.25     0  02:05      1.31    1.31    1.00
  WS02006242WS02006240 CONDUIT    415.33     0  02:05      1.15    1.65    1.00
  WS02006243WS02006242 CONDUIT    417.62     0  01:35      1.40    0.89    1.00
  WS02006245WS02006243 CONDUIT    431.96     0  01:35      1.40    1.28    1.00
  WS02006247WS02006245 CONDUIT    442.21     0  01:35      1.38    3.51    1.00
  WS02006248WS02006247 CONDUIT    452.05     0  01:35      1.39    0.98    1.00
  WS02006249WS02006248 CONDUIT    467.45     0  01:35      1.38    2.56    1.00
  WS02006251WS02006249 CONDUIT   1337.75     0  01:50      3.48    3.86    1.00
  WS02006252WS02006251 CONDUIT    412.49     0  03:05      4.86    1.51    1.00
  WS02006253WS02006251 CONDUIT   1491.16     0  01:50      3.87    4.47    1.00
  WS02006256WS02006235 CONDUIT    277.31     0  06:20      4.06    2.93    1.00
  WS02006280WS02006229 CONDUIT   2233.76     0  01:52      3.75    0.48    1.00
  WS02006284WS02006280 CONDUIT   2232.68     0  01:52      2.96    0.93    1.00
  WS02006287WS02006284 CONDUIT   2232.40     0  01:52      2.84    1.03    1.00
  WSF200WS02003060     CONDUIT   1262.73     0  01:50      2.40    0.28    0.49
  YS02001580YS02001583 CONDUIT    171.40     0  01:47      0.91    0.66    1.00
  YS02001583YS02001586 CONDUIT    203.43     0  01:48      0.93    0.31    1.00
  YS02001586YS02001590 CONDUIT    317.94     0  01:55      1.28    0.56    1.00
  YS02001590YS02001593 CONDUIT    318.08     0  01:59      1.12    2.00    1.00
  YS02001593YS02001596 CONDUIT    318.01     0  01:59      1.73    0.50    1.00
  YS02001596YS02001600 CONDUIT    317.97     0  02:00      1.19    0.62    1.00
  YS02001600YS02001601 CONDUIT    317.84     0  02:02      1.12    0.55    1.00
  YS02001601YS02001602 CONDUIT    574.10     0  01:47      2.03    2.07    1.00
  YS02001602YS02001605 CONDUIT    573.97     0  01:47      2.03   12.15    1.00
  YS02001605YS02001607 CONDUIT    573.94     0  01:47      2.03    3.15    1.00
  YS02001607YS02001610 CONDUIT    548.09     0  01:48      0.71    0.52    1.00
  YS02001610YS02001613 CONDUIT    557.81     0  01:48      0.71    0.64    1.00
  YS02001613YS02001616 CONDUIT    569.86     0  01:48      0.73    0.49    1.00
  YS02001616YS02001619 CONDUIT    514.03     0  02:14      0.67    0.89    1.00
  YS02001619YS02001622 CONDUIT    954.59     0  01:48      1.26    1.41    1.00
  YS02001622YS02001625 CONDUIT    949.50     0  01:48      1.21    0.51    1.00
  YS02001625YS02001629 CONDUIT    950.15     0  01:48      1.21    0.45    1.00
  YS02001629YS02163301 CONDUIT    928.65     0  02:06      1.18    1.14    1.00
  YS02001633YS02163601 CONDUIT   1418.66     0  01:49      1.81    1.49    1.00
  YS02001641YS02001644 CONDUIT   1418.11     0  01:49      1.81    4.58    1.00
  YS02001644YS02001647 CONDUIT   1888.28     0  01:49      2.41    1.11    1.00
  YS02001647YS02001649 CONDUIT   1868.00     0  01:49      2.40    0.99    1.00
  YS02001649YS02001757 CONDUIT   2152.13     0  01:49      2.74    1.31    1.00
  YS02001652YS02001649 CONDUIT    603.88     0  01:53      0.83    0.30    1.00
  YS02001655YS02001652 CONDUIT    604.24     0  01:53      1.41    0.29    1.00
  YS02001658YS02001655 CONDUIT    604.84     0  01:53      2.04    0.26    1.00
  YS02001661YS02001658 CONDUIT    578.03     0  01:53      2.39    0.23    0.89
  YS02001664YS02001661 CONDUIT    507.58     0  01:51      2.31    0.16    0.56
  YS02001745YS02001748 CONDUIT    605.78     0  01:53      2.28    0.23    0.67
  YS02001748YS02001751 CONDUIT    550.36     0  01:54      1.88    0.28    1.00
  YS02001751YS02001754 CONDUIT    418.49     0  01:53      1.50    0.20    1.00
  YS02001754YS02001757 CONDUIT    420.19     0  01:53      0.53    0.17    1.00
  YS02001757CaochengTiaoxuchi CONDUIT   3219.42     0  01:53      6.44    1.39    0.82
  YS02001759YS02001757 CONDUIT   1158.19     0  01:50      1.47    0.82    1.00
  YS02001762YS02001759 CONDUIT    690.91     0  01:50      0.88    0.80    1.00
  YS02001765YS02001762 CONDUIT    686.91     0  01:50      0.87    0.64    1.00
  YS02001767YS02001765 CONDUIT    682.42     0  01:50      0.87    0.86    1.00
  YS02001770YS02001767 CONDUIT    678.10     0  01:50      0.86    2.69    1.00
  YS02001774YS02001770 CONDUIT    424.71     0  01:50      0.54    0.27    1.00
  YS02001779YS02001774 CONDUIT    431.31     0  01:50      0.55    0.22    1.00
  YS02001783YS02001784 CONDUIT   1151.20     0  01:51      2.29    1.59    1.00
  YS02001784YS02001785 CONDUIT   1151.92     0  01:51      2.29    2.68    1.00
  YS02001786YS02001788 CONDUIT   1152.56     0  01:50      2.48    2.22    1.00
  YS02001788YS02001790 CONDUIT   1165.43     0  01:50      2.69    0.86    1.00
  YS02001790YS02001791 CONDUIT   1276.40     0  01:51      3.42    1.39    1.00
  YS02001791YS02001793 CONDUIT   1231.93     0  01:58      6.75    0.53    1.00
  YS02001793JiankangQianchi CONDUIT   1296.58     0  01:55     24.61    0.10    1.00
  YS02001882YS02001884 CONDUIT     95.91     0  01:48      0.12    0.11    1.00
  YS02001884YS02001887 CONDUIT    141.88     0  01:48      0.18    0.19    1.00
  YS02001887YS02001890 CONDUIT    547.10     0  01:48      0.70    0.94    1.00
  YS02001890YS02001895 CONDUIT    558.16     0  01:48      0.71    0.26    1.00
  YS02001895YS02001898 CONDUIT    540.51     0  01:49      0.69    0.94    1.00
  YS02001898YS02001901 CONDUIT    550.82     0  01:49      0.70    0.36    1.00
  YS02001901YS02001904 CONDUIT    553.64     0  01:49      0.70    0.86    1.00
  YS02001904YS02001907 CONDUIT    556.59     0  01:49      0.71    0.19    1.00
  YS02001907YS02006553 CONDUIT    786.28     0  02:08      0.87    0.92    1.00
  YS02001910YS02001907 CONDUIT    999.92     0  01:51      1.27    0.56    1.00
  YS02001915YS02001910 CONDUIT   1000.26     0  01:51      1.27    0.50    1.00
  YS02001918YS02001915 CONDUIT    564.10     0  01:49      0.76    0.31    1.00
  YS02001920YS02001918 CONDUIT    528.90     0  01:49      0.67    0.51    1.00
  YS02001923YS02001920 CONDUIT    538.18     0  01:49      0.74    0.24    1.00
  YS02001926YS02001923 CONDUIT    726.51     0  01:49      1.17    1.04    1.00
  YS02001929YS02001926 CONDUIT    536.04     0  01:50      1.18    0.25    1.00
  YS02006553YS02006556 CONDUIT    786.60     0  02:07      1.00    0.67    1.00
  YS02006556YS02006558 CONDUIT    790.10     0  02:07      1.01    0.62    1.00
  YS02006558YS02006561 CONDUIT   1164.67     0  01:49      4.12    2.57    1.00
  YS02006561YS02001783 CONDUIT   1150.92     0  01:51      2.29    0.60    1.00
  YS02163301YS02001633 CONDUIT    929.38     0  02:04      1.18    0.87    1.00
  YS02163601YS02164001 CONDUIT   1418.92     0  01:49      1.81    1.26    1.00
  YS02164001YS02001641 CONDUIT   1418.16     0  01:49      1.81    1.94    1.00
  YSB1154YSB6556       CONDUIT    270.25     0  01:51      0.70    0.49    1.00
  YSB1171HS02004479    CONDUIT    509.38     0  01:50      1.01    0.34    1.00
  YSB1174YSB1171       CONDUIT    244.43     0  01:50      0.64    0.37    1.00
  YSB6556YSB1171       CONDUIT    270.18     0  01:51      0.70    0.28    1.00
  CC-R1                PUMP       683.00     0  00:05              1.00
  CC-R2                PUMP       683.00     0  00:30              1.00
  CC-S1                PUMP       200.00     0  00:05              1.00
  CC-S2                PUMP       200.00     0  00:05              1.00
  JK-R1                PUMP      1000.00     0  01:45              1.00
  JK-R2                PUMP      1000.00     0  00:05              1.00
  JK-S                 PUMP       300.00     0  01:42              1.00
  XR-1                 PUMP        95.00     0  00:10              1.00
  XR-2                 PUMP        95.00     0  00:29              1.00
  XR-3                 PUMP         0.00     0  00:00              0.00
  XR-4                 PUMP         0.00     0  00:00              0.00
  
  
  ***************************
  Flow Classification Summary
  ***************************
  
  -------------------------------------------------------------------------------------
                      Adjusted    ---------- Fraction of Time in Flow Class ---------- 
                       /Actual         Up    Down  Sub   Sup   Up    Down  Norm  Inlet 
  Conduit               Length    Dry  Dry   Dry   Crit  Crit  Crit  Crit  Ltd   Ctrl  
  -------------------------------------------------------------------------------------
  1                       1.00   0.00  0.00  0.00  0.00  1.00  0.00  0.00  0.38  0.00
  HS02004478WS02006287    1.00   0.16  0.00  0.00  0.66  0.17  0.00  0.00  0.61  0.00
  HS02004479HS02004480    1.00   0.04  0.00  0.00  0.96  0.00  0.00  0.00  0.11  0.00
  HS02004480HS02004478    1.00   0.13  0.00  0.00  0.61  0.00  0.00  0.26  0.00  0.00
  HS02004770HS02004777    1.00   0.00  0.13  0.00  0.87  0.00  0.00  0.00  0.03  0.00
  HS02004777HS02004785    1.00   0.00  0.00  0.00  1.00  0.00  0.00  0.00  0.12  0.00
  HS02004785HS02004788    1.00   0.00  0.00  0.00  1.00  0.00  0.00  0.00  0.00  0.00
  HS02004788HS02004792    1.00   0.00  0.00  0.00  0.99  0.01  0.00  0.00  0.92  0.00
  HS02004792HS02004799    1.00   0.00  0.00  0.00  0.99  0.01  0.00  0.00  0.89  0.00
  HS02004799HS02004480    1.00   0.00  0.03  0.00  0.84  0.00  0.13  0.00  0.00  0.00
  HS02004802HS02004478    1.00   0.13  0.01  0.00  0.86  0.00  0.00  0.00  0.03  0.00
  HS02004807HS02004802    1.00   0.13  0.00  0.00  0.85  0.00  0.00  0.02  0.00  0.00
  HS02004817HS02004807    1.00   0.00  0.13  0.00  0.87  0.00  0.00  0.00  0.01  0.00
  HS02004817HS02004824    1.00   0.00  0.00  0.00  1.00  0.00  0.00  0.00  0.84  0.00
  HS02004824HS02004830    1.00   0.00  0.00  0.00  1.00  0.00  0.00  0.00  0.01  0.00
  HS02004830HS02004837    1.00   0.00  0.00  0.00  1.00  0.00  0.00  0.00  0.91  0.00
  HS02004837HS02004842    1.00   0.00  0.00  0.00  0.99  0.01  0.00  0.00  0.11  0.00
  HS02004842HS02004848    1.00   0.00  0.13  0.00  0.87  0.00  0.00  0.00  0.58  0.00
  HS02004848HS02004852    1.00   0.13  0.00  0.00  0.87  0.00  0.00  0.00  0.72  0.00
  HS02004852HS02004856    1.00   0.13  0.01  0.00  0.86  0.00  0.00  0.00  0.69  0.00
  HS02004856HS02004862    1.00   0.00  0.17  0.00  0.83  0.00  0.00  0.00  0.76  0.00
  HS02004862HS02004870    1.00   0.00  0.00  0.00  1.00  0.00  0.00  0.00  0.04  0.00
  HS02004870HS02004876    1.00   0.00  0.00  0.00  1.00  0.00  0.00  0.00  0.88  0.00
  HS02004876HS02004881    1.00   0.01  0.00  0.00  0.86  0.14  0.00  0.00  0.00  0.00
  HS02004881HS02006253    1.00   0.02  0.02  0.00  0.36  0.01  0.00  0.58  0.31  0.00
  HS02004901HS02004770    1.00   0.13  0.00  0.00  0.87  0.00  0.00  0.00  0.00  0.00
  WS02001211WS02001212    1.00   0.00  0.02  0.00  0.98  0.00  0.00  0.00  0.00  0.00
  WS02001212WS02001213    1.00   0.02  0.00  0.00  0.35  0.00  0.62  0.00  0.00  0.00
  WS02001213WS02003059    1.00   0.00  0.01  0.00  0.99  0.00  0.00  0.00  0.00  0.00
  WS02003059WS02003060    1.00   0.00  0.00  0.00  1.00  0.00  0.00  0.00  0.03  0.00
  WS02003060WS02003069    1.00   0.00  0.00  0.00  0.97  0.03  0.00  0.00  0.35  0.00
  WS02003066WSF200        1.00   0.05  0.00  0.00  0.00  0.95  0.00  0.00  0.65  0.00
  WS02003067WS02003066    1.00   0.05  0.00  0.00  0.95  0.00  0.00  0.00  0.00  0.00
  WS02003069WS02003072    1.00   0.00  0.00  0.00  0.99  0.01  0.00  0.00  0.57  0.00
  WS02003072WS02003073    1.00   0.00  0.00  0.00  0.00  0.00  0.00  1.00  0.00  0.00
  WS02004138WS02004139    1.00   0.02  0.00  0.00  0.97  0.01  0.00  0.00  0.98  0.00
  WS02004139WS02001211    1.00   0.00  0.01  0.00  0.99  0.00  0.00  0.00  0.00  0.00
  WS02004401WS02004402    1.00   0.00  0.00  0.00  1.00  0.00  0.00  0.00  0.00  0.00
  WS02004402WS02004403    1.00   0.00  0.00  0.00  1.00  0.00  0.00  0.00  0.00  0.00
  WS02004403WS02004404    1.00   0.00  0.00  0.00  1.00  0.00  0.00  0.00  0.00  0.00
  WS02004404WS02004405    1.00   0.00  0.00  0.00  1.00  0.00  0.00  0.00  0.00  0.00
  WS02004405WS02004406    1.00   0.00  0.00  0.00  1.00  0.00  0.00  0.00  0.00  0.00
  WS02004406WS02004407    1.00   0.00  0.01  0.00  0.99  0.00  0.00  0.00  0.01  0.00
  WS02004407WS02004409    1.00   0.01  0.00  0.00  0.98  0.01  0.00  0.00  0.88  0.00
  WS02004409WS02004410    1.00   0.01  0.00  0.00  0.99  0.00  0.00  0.00  0.00  0.00
  WS02004410WS02004411    1.00   0.01  0.00  0.00  0.99  0.00  0.00  0.00  0.00  0.00
  WS02004411WS02004412    1.00   0.01  0.00  0.00  0.99  0.00  0.00  0.00  0.00  0.00
  WS02004412WS02004413    1.00   0.01  0.00  0.00  0.99  0.00  0.00  0.00  0.01  0.00
  WS02004413WS02003067    1.00   0.01  0.03  0.00  0.00  0.00  0.95  0.00  0.00  0.00
  WS02006109WS02006110    1.00   0.00  0.00  0.00  1.00  0.00  0.00  0.00  0.00  0.00
  WS02006110WS02006113    1.00   0.00  0.00  0.00  1.00  0.00  0.00  0.00  0.00  0.00
  WS02006111WS02006112    1.00   0.00  0.00  0.00  1.00  0.00  0.00  0.00  0.78  0.00
  WS02006112WS02006115    1.00   0.00  0.00  0.00  1.00  0.00  0.00  0.00  0.00  0.00
  WS02006113WS02006111    1.00   0.00  0.00  0.00  0.19  0.81  0.00  0.00  0.10  0.00
  WS02006115WS02006116    1.00   0.00  0.00  0.00  1.00  0.00  0.00  0.00  0.00  0.00
  WS02006116WS02004401    1.00   0.00  0.00  0.00  1.00  0.00  0.00  0.00  0.00  0.00
  WS02006228WS02006109    1.00   0.00  0.00  0.00  1.00  0.00  0.00  0.00  0.00  0.00
  WS02006229WS02006228    1.00   0.00  0.00  0.00  1.00  0.00  0.00  0.00  0.00  0.00
  WS02006230WS02006229    1.00   0.00  0.00  0.00  1.00  0.00  0.00  0.00  0.01  0.00
  WS02006231WS02006230    1.00   0.00  0.00  0.00  0.33  0.00  0.67  0.00  0.00  0.00
  WS02006232WS02006231    1.00   0.00  0.00  0.00  0.99  0.00  0.00  0.00  0.01  0.00
  WS02006234WS02006232    1.00   0.00  0.01  0.00  0.99  0.00  0.00  0.00  0.01  0.00
  WS02006235WS02006234    1.00   0.02  0.00  0.00  0.98  0.00  0.00  0.00  0.00  0.00
  WS02006238WS02006235    1.00   0.02  0.00  0.00  0.98  0.00  0.00  0.00  0.00  0.00
  WS02006239WS02006238    1.00   0.02  0.00  0.00  0.98  0.00  0.00  0.00  0.00  0.00
  WS02006240WS02006239    1.00   0.02  0.00  0.00  0.96  0.00  0.00  0.02  0.00  0.00
  WS02006242WS02006240    1.00   0.01  0.00  0.00  0.98  0.00  0.00  0.00  0.00  0.00
  WS02006243WS02006242    1.00   0.01  0.00  0.00  0.98  0.00  0.00  0.01  0.51  0.00
  WS02006245WS02006243    1.00   0.01  0.00  0.00  0.96  0.00  0.00  0.03  0.00  0.00
  WS02006247WS02006245    1.00   0.01  0.00  0.00  0.98  0.00  0.00  0.01  0.00  0.00
  WS02006248WS02006247    1.00   0.01  0.00  0.00  0.98  0.00  0.00  0.01  0.46  0.00
  WS02006249WS02006248    1.00   0.00  0.01  0.00  0.55  0.00  0.44  0.00  0.00  0.00
  WS02006251WS02006249    1.00   0.00  0.00  0.00  1.00  0.00  0.00  0.00  0.43  0.00
  WS02006252WS02006251    1.00   0.02  0.02  0.00  0.28  0.00  0.68  0.00  0.00  0.00
  WS02006253WS02006251    1.00   0.01  0.00  0.00  0.99  0.00  0.00  0.00  0.00  0.00
  WS02006256WS02006235    1.00   0.02  0.00  0.00  0.98  0.00  0.00  0.00  0.00  0.00
  WS02006280WS02006229    1.00   0.14  0.00  0.00  0.13  0.05  0.00  0.68  0.01  0.00
  WS02006284WS02006280    1.00   0.14  0.00  0.00  0.08  0.01  0.00  0.77  0.00  0.00
  WS02006287WS02006284    1.00   0.10  0.06  0.00  0.57  0.27  0.00  0.00  0.65  0.00
  WSF200WS02003060        1.00   0.00  0.05  0.00  0.63  0.32  0.00  0.00  0.59  0.00
  YS02001580YS02001583    1.00   0.22  0.61  0.00  0.17  0.00  0.00  0.00  0.70  0.00
  YS02001583YS02001586    1.00   0.43  0.34  0.00  0.22  0.00  0.00  0.00  0.71  0.00
  YS02001586YS02001590    1.00   0.13  0.00  0.00  0.40  0.04  0.00  0.43  0.36  0.00
  YS02001590YS02001593    1.00   0.13  0.01  0.00  0.09  0.00  0.78  0.00  0.00  0.00
  YS02001593YS02001596    1.00   0.14  0.00  0.00  0.10  0.01  0.00  0.75  0.02  0.00
  YS02001596YS02001600    1.00   0.14  0.00  0.00  0.18  0.01  0.00  0.67  0.06  0.00
  YS02001600YS02001601    1.00   0.13  0.01  0.00  0.86  0.00  0.00  0.00  0.62  0.00
  YS02001601YS02001602    1.00   0.13  0.01  0.00  0.86  0.00  0.00  0.00  0.00  0.00
  YS02001602YS02001605    1.00   0.14  0.00  0.00  0.86  0.00  0.00  0.00  0.00  0.00
  YS02001605YS02001607    1.00   0.14  0.00  0.00  0.86  0.00  0.00  0.00  0.00  0.00
  YS02001607YS02001610    1.00   0.13  0.01  0.00  0.86  0.00  0.00  0.00  0.02  0.00
  YS02001610YS02001613    1.00   0.13  0.00  0.00  0.87  0.00  0.00  0.00  0.01  0.00
  YS02001613YS02001616    1.00   0.13  0.00  0.00  0.87  0.00  0.00  0.00  0.01  0.00
  YS02001616YS02001619    1.00   0.13  0.00  0.00  0.87  0.00  0.00  0.00  0.00  0.00
  YS02001619YS02001622    1.00   0.13  0.00  0.00  0.87  0.00  0.00  0.00  0.30  0.00
  YS02001622YS02001625    1.00   0.13  0.00  0.00  0.87  0.00  0.00  0.00  0.05  0.00
  YS02001625YS02001629    1.00   0.13  0.05  0.00  0.13  0.00  0.69  0.00  0.00  0.00
  YS02001629YS02163301    1.00   0.16  0.01  0.00  0.83  0.00  0.00  0.00  0.00  0.00
  YS02001633YS02163601    1.00   0.00  0.01  0.00  0.99  0.00  0.00  0.00  0.15  0.00
  YS02001641YS02001644    1.00   0.00  0.01  0.00  0.99  0.00  0.00  0.00  0.00  0.00
  YS02001644YS02001647    1.00   0.00  0.18  0.00  0.82  0.00  0.00  0.00  0.00  0.00
  YS02001647YS02001649    1.00   0.00  0.18  0.00  0.48  0.34  0.00  0.00  0.58  0.00
  YS02001649YS02001757    1.00   0.00  0.00  0.00  0.80  0.20  0.00  0.00  0.89  0.00
  YS02001652YS02001649    1.00   0.00  0.00  0.00  0.96  0.04  0.00  0.00  0.76  0.00
  YS02001655YS02001652    1.00   0.00  0.00  0.00  0.15  0.03  0.00  0.83  0.10  0.00
  YS02001658YS02001655    1.00   0.00  0.14  0.00  0.59  0.27  0.00  0.00  0.75  0.00
  YS02001661YS02001658    1.00   0.14  0.00  0.00  0.43  0.42  0.00  0.00  0.75  0.00
  YS02001664YS02001661    1.00   0.13  0.00  0.00  0.75  0.13  0.00  0.00  0.86  0.00
  YS02001745YS02001748    1.00   0.00  0.00  0.00  0.02  0.01  0.00  0.97  0.02  0.00
  YS02001748YS02001751    1.00   0.00  0.00  0.00  0.75  0.25  0.00  0.00  0.83  0.00
  YS02001751YS02001754    1.00   0.00  0.00  0.00  0.08  0.01  0.00  0.90  0.04  0.00
  YS02001754YS02001757    1.00   0.00  0.00  0.00  1.00  0.00  0.00  0.00  0.89  0.00
  YS02001757CaochengTiaoxuchi    1.00   0.00  0.00  0.00  0.30  0.70  0.00  0.00  0.29  0.00
  YS02001759YS02001757    1.00   0.00  0.00  0.00  1.00  0.00  0.00  0.00  0.72  0.00
  YS02001762YS02001759    1.00   0.00  0.00  0.00  1.00  0.00  0.00  0.00  0.04  0.00
  YS02001765YS02001762    1.00   0.00  0.00  0.00  1.00  0.00  0.00  0.00  0.76  0.00
  YS02001767YS02001765    1.00   0.00  0.00  0.00  1.00  0.00  0.00  0.00  0.00  0.00
  YS02001770YS02001767    1.00   0.00  0.00  0.00  1.00  0.00  0.00  0.00  0.00  0.00
  YS02001774YS02001770    1.00   0.00  0.13  0.00  0.69  0.00  0.17  0.00  0.03  0.00
  YS02001779YS02001774    1.00   0.00  0.00  0.00  1.00  0.00  0.00  0.00  0.80  0.00
  YS02001783YS02001784    1.00   0.00  0.18  0.00  0.82  0.00  0.00  0.00  0.56  0.00
  YS02001784YS02001785    1.00   0.00  0.00  0.00  1.00  0.00  0.00  0.00  0.17  0.00
  YS02001786YS02001788    1.00   0.00  0.00  0.00  0.79  0.21  0.00  0.00  0.00  0.00
  YS02001788YS02001790    1.00   0.00  0.00  0.00  0.22  0.78  0.00  0.00  0.83  0.00
  YS02001790YS02001791    1.00   0.00  0.00  0.00  0.03  0.97  0.00  0.00  0.16  0.00
  YS02001791YS02001793    1.00   0.00  0.00  0.00  0.02  0.98  0.00  0.00  0.00  0.00
  YS02001793JiankangQianchi    1.00   0.00  0.00  0.00  0.08  0.92  0.00  0.00  0.10  0.00
  YS02001882YS02001884    1.00   0.15  0.01  0.00  0.84  0.00  0.00  0.00  0.00  0.00
  YS02001884YS02001887    1.00   0.06  0.05  0.00  0.89  0.00  0.00  0.00  0.00  0.00
  YS02001887YS02001890    1.00   0.00  0.00  0.00  0.97  0.00  0.03  0.00  0.00  0.00
  YS02001890YS02001895    1.00   0.00  0.17  0.00  0.83  0.00  0.00  0.00  0.00  0.00
  YS02001895YS02001898    1.00   0.17  0.00  0.00  0.81  0.00  0.02  0.00  0.00  0.00
  YS02001898YS02001901    1.00   0.17  0.00  0.00  0.83  0.00  0.00  0.00  0.01  0.00
  YS02001901YS02001904    1.00   0.17  0.00  0.00  0.83  0.00  0.00  0.00  0.00  0.00
  YS02001904YS02001907    1.00   0.00  0.17  0.00  0.83  0.00  0.00  0.00  0.00  0.00
  YS02001907YS02006553    1.00   0.00  0.02  0.00  0.98  0.00  0.00  0.00  0.00  0.00
  YS02001910YS02001907    1.00   0.00  0.00  0.00  0.97  0.00  0.00  0.03  0.12  0.00
  YS02001915YS02001910    1.00   0.00  0.00  0.00  0.96  0.04  0.00  0.00  0.17  0.00
  YS02001918YS02001915    1.00   0.00  0.00  0.00  0.98  0.02  0.00  0.00  0.78  0.00
  YS02001920YS02001918    1.00   0.00  0.00  0.00  1.00  0.00  0.00  0.00  0.01  0.00
  YS02001923YS02001920    1.00   0.00  0.00  0.00  1.00  0.00  0.00  0.00  0.94  0.00
  YS02001926YS02001923    1.00   0.00  0.07  0.00  0.05  0.00  0.88  0.00  0.00  0.00
  YS02001929YS02001926    1.00   0.00  0.13  0.00  0.87  0.00  0.00  0.00  0.83  0.00
  YS02006553YS02006556    1.00   0.01  0.00  0.00  0.99  0.00  0.00  0.00  0.03  0.00
  YS02006556YS02006558    1.00   0.00  0.00  0.00  1.00  0.00  0.00  0.00  0.00  0.00
  YS02006558YS02006561    1.00   0.18  0.00  0.00  0.04  0.77  0.00  0.00  0.19  0.00
  YS02006561YS02001783    1.00   0.18  0.00  0.00  0.07  0.75  0.00  0.00  0.71  0.00
  YS02163301YS02001633    1.00   0.00  0.16  0.00  0.84  0.00  0.00  0.00  0.00  0.00
  YS02163601YS02164001    1.00   0.00  0.08  0.00  0.92  0.00  0.00  0.00  0.00  0.00
  YS02164001YS02001641    1.00   0.01  0.07  0.00  0.92  0.00  0.00  0.00  0.06  0.00
  YSB1154YSB6556          1.00   0.12  0.00  0.00  0.88  0.00  0.00  0.00  0.02  0.00
  YSB1171HS02004479       1.00   0.04  0.00  0.00  0.95  0.00  0.00  0.01  0.10  0.00
  YSB1174YSB1171          1.00   0.05  0.04  0.00  0.91  0.00  0.00  0.00  0.00  0.00
  YSB6556YSB1171          1.00   0.04  0.08  0.00  0.88  0.00  0.00  0.00  0.00  0.00
  
  
  *************************
  Conduit Surcharge Summary
  *************************
  
  ----------------------------------------------------------------------------
                                                           Hours        Hours 
                         --------- Hours Full --------   Above Full   Capacity
  Conduit                Both Ends  Upstream  Dnstream   Normal Flow   Limited
  ----------------------------------------------------------------------------
  HS02004478WS02006287        0.33      0.33      0.48      0.01         0.01
  HS02004479HS02004480        0.49      0.49      0.51      0.01         0.01
  HS02004480HS02004478        0.43      0.49      0.43      1.55         0.43
  HS02004770HS02004777        0.40      0.41      0.41      0.10         0.08
  HS02004777HS02004785        0.36      0.36      0.41      0.01         0.01
  HS02004785HS02004788        0.35      0.36      0.35      1.23         0.33
  HS02004788HS02004792        0.35      0.35      0.46      0.01         0.01
  HS02004792HS02004799        0.46      0.46      0.56      0.01         0.01
  HS02004799HS02004480        0.49      0.49      0.56      0.64         0.01
  HS02004802HS02004478        0.44      0.44      0.50      0.01         0.01
  HS02004807HS02004802        0.48      0.48      0.49      0.08         0.08
  HS02004817HS02004807        0.48      0.48      1.01      0.01         0.01
  HS02004817HS02004824        0.35      0.35      1.01      0.01         0.01
  HS02004824HS02004830        0.33      0.33      0.35      0.01         0.01
  HS02004830HS02004837        0.28      0.28      0.33      0.01         0.01
  HS02004837HS02004842        0.28      0.28      0.41      0.01         0.01
  HS02004842HS02004848        0.25      0.25      0.41      0.01         0.01
  HS02004848HS02004852        0.25      0.25      0.28      0.03         0.01
  HS02004852HS02004856        0.28      0.28      0.30      0.02         0.01
  HS02004856HS02004862        0.26      0.26      0.30      0.01         0.01
  HS02004862HS02004870        0.30      0.30      0.32      0.02         0.01
  HS02004870HS02004876        0.32      0.32      0.39      0.01         0.01
  HS02004876HS02004881        0.37      0.39      0.37      1.27         0.37
  HS02004881HS02006253        0.37      0.37      2.18      0.01         0.01
  HS02004901HS02004770        0.41      0.41      0.41      0.01         0.01
  WS02003072WS02003073        0.01      0.01      0.01      2.79         0.01
  WS02004401WS02004402        1.59      1.59      1.62      1.35         1.32
  WS02004402WS02004403        1.62      1.62      1.63      1.60         1.57
  WS02004403WS02004404        1.63      1.63      1.81      0.01         0.01
  WS02004404WS02004405        1.76      1.81      1.76      4.21         1.76
  WS02004405WS02004406        1.73      1.76      1.73      2.25         1.73
  WS02004406WS02004407        0.01      0.01      1.73      0.01         0.01
  WS02004407WS02004409        0.01      0.01      0.83      0.01         0.01
  WS02004409WS02004410        0.78      0.83      0.78      1.40         0.78
  WS02004410WS02004411        0.69      0.78      0.69      1.52         0.69
  WS02004411WS02004412        0.59      0.69      0.59      1.58         0.59
  WS02004412WS02004413        0.59      0.59      1.17      0.01         0.01
  WS02004413WS02003067        0.01      0.01      1.17      0.01         0.01
  WS02006109WS02006110        2.13      2.14      2.44      2.14         0.01
  WS02006110WS02006113        1.16      1.16      2.44      0.28         0.01
  WS02006111WS02006112        1.06      1.07      2.63      0.01         0.01
  WS02006112WS02006115        1.43      1.43      2.32      0.01         0.01
  WS02006113WS02006111        1.12      1.16      1.12      1.32         1.12
  WS02006115WS02006116        1.46      1.46      1.47      1.42         1.39
  WS02006116WS02004401        1.59      1.59      1.59      1.56         1.51
  WS02006228WS02006109        2.41      2.44      2.41      3.01         2.41
  WS02006229WS02006228        2.41      2.42      2.41      2.71         2.41
  WS02006230WS02006229        2.47      2.60      2.47      4.70         1.67
  WS02006231WS02006230        1.93      1.93      2.31      3.97         0.79
  WS02006232WS02006231        2.27      2.27      2.37      0.01         0.09
  WS02006234WS02006232        2.34      2.34      2.37      0.01         0.01
  WS02006235WS02006234        2.33      2.33      2.34      3.49         0.77
  WS02006238WS02006235        2.35      2.35      2.36      0.01         0.26
  WS02006239WS02006238        2.35      2.35      2.35      1.62         0.77
  WS02006240WS02006239        2.33      2.34      2.33      1.60         0.76
  WS02006242WS02006240        2.33      2.33      2.40      2.09         0.71
  WS02006243WS02006242        2.33      2.33      2.34      0.01         0.01
  WS02006245WS02006243        2.32      2.32      2.32      0.93         0.68
  WS02006247WS02006245        2.32      2.33      2.32      2.94         1.25
  WS02006248WS02006247        2.32      2.32      2.32      0.01         0.01
  WS02006249WS02006248        2.31      2.31      2.32      1.86         0.01
  WS02006251WS02006249        2.32      2.34      2.32      2.50         2.13
  WS02006252WS02006251        2.58      2.58      2.65      2.05         0.01
  WS02006253WS02006251        2.33      2.33      2.34      0.60         0.03
  WS02006256WS02006235        3.77      3.77      7.80      0.82         0.01
  WS02006280WS02006229        0.60      0.60      0.73      0.01         0.01
  WS02006284WS02006280        0.51      0.51      0.58      0.01         0.01
  WS02006287WS02006284        0.43      0.43      0.52      0.14         0.13
  YS02001580YS02001583        0.39      0.39      0.44      0.01         0.01
  YS02001583YS02001586        0.39      0.39      0.52      0.01         0.01
  YS02001586YS02001590        0.53      0.53      0.59      0.01         0.01
  YS02001590YS02001593        0.59      0.59      0.61      0.65         0.01
  YS02001593YS02001596        0.60      0.60      0.69      0.01         0.01
  YS02001596YS02001600        0.73      0.73      0.83      0.01         0.01
  YS02001600YS02001601        0.90      0.90      1.25      0.01         0.01
  YS02001601YS02001602        1.10      1.10      1.31      0.86         0.01
  YS02001602YS02001605        1.03      1.03      1.10      2.06         0.01
  YS02001605YS02001607        0.98      1.03      0.98      1.19         0.98
  YS02001607YS02001610        0.52      0.52      0.55      0.01         0.01
  YS02001610YS02001613        0.51      0.51      0.55      0.01         0.01
  YS02001613YS02001616        0.47      0.47      0.51      0.01         0.01
  YS02001616YS02001619        0.46      0.46      0.47      0.01         0.01
  YS02001619YS02001622        0.45      0.46      0.45      0.64         0.43
  YS02001622YS02001625        0.45      0.45      0.64      0.01         0.01
  YS02001625YS02001629        0.34      0.34      0.64      0.01         0.01
  YS02001629YS02163301        0.62      0.62      0.63      0.32         0.34
  YS02001633YS02163601        0.65      0.65      0.67      0.46         0.46
  YS02001641YS02001644        0.47      0.53      0.47      1.37         0.47
  YS02001644YS02001647        0.24      0.24      0.47      0.04         0.01
  YS02001647YS02001649        0.24      0.24      0.28      0.01         0.01
  YS02001649YS02001757        0.26      0.28      0.26      0.35         0.25
  YS02001652YS02001649        0.19      0.19      0.28      0.01         0.01
  YS02001655YS02001652        0.09      0.09      0.17      0.01         0.01
  YS02001658YS02001655        0.02      0.02      0.09      0.01         0.01
  YS02001661YS02001658        0.01      0.01      0.02      0.01         0.01
  YS02001748YS02001751        0.01      0.01      0.04      0.01         0.01
  YS02001751YS02001754        0.04      0.04      0.10      0.01         0.01
  YS02001754YS02001757        0.12      0.12      0.26      0.01         0.01
  YS02001757CaochengTiaoxuchi        0.01      0.26      0.60      0.35         0.01
  YS02001759YS02001757        0.21      0.21      0.26      0.01         0.01
  YS02001762YS02001759        0.20      0.20      0.21      0.01         0.01
  YS02001765YS02001762        0.19      0.19      0.20      0.01         0.01
  YS02001767YS02001765        0.17      0.17      0.19      0.01         0.01
  YS02001770YS02001767        0.17      0.18      0.17      0.44         0.17
  YS02001774YS02001770        0.17      0.17      0.21      0.01         0.01
  YS02001779YS02001774        0.12      0.12      0.21      0.01         0.01
  YS02001783YS02001784        0.39      0.41      0.39      0.53         0.39
  YS02001784YS02001785        0.31      0.39      0.31      0.73         0.31
  YS02001786YS02001788        0.10      0.31      0.10      0.61         0.10
  YS02001788YS02001790        0.10      0.10      0.12      0.01         0.01
  YS02001790YS02001791        0.11      0.12      0.11      0.38         0.11
  YS02001791YS02001793        0.11      0.11      0.17      0.01         0.01
  YS02001793JiankangQianchi        0.15      0.15      0.49      0.01         0.01
  YS02001882YS02001884        0.37      0.37      0.37      0.01         0.01
  YS02001884YS02001887        0.39      0.39      0.40      0.01         0.01
  YS02001887YS02001890        0.41      0.41      0.42      0.01         0.01
  YS02001890YS02001895        0.36      0.36      0.44      0.01         0.01
  YS02001895YS02001898        0.35      0.35      0.36      0.01         0.01
  YS02001898YS02001901        0.36      0.36      0.39      0.01         0.01
  YS02001901YS02001904        0.38      0.38      0.39      0.01         0.01
  YS02001904YS02001907        0.38      0.38      0.59      0.01         0.01
  YS02001907YS02006553        0.74      0.74      0.80      0.01         0.01
  YS02001910YS02001907        0.44      0.44      0.58      0.01         0.01
  YS02001915YS02001910        0.36      0.36      0.44      0.01         0.01
  YS02001918YS02001915        0.30      0.30      0.36      0.01         0.01
  YS02001920YS02001918        0.30      0.30      0.31      0.01         0.01
  YS02001923YS02001920        0.26      0.26      0.31      0.01         0.01
  YS02001926YS02001923        0.01      0.01      0.01      0.01         0.01
  YS02001929YS02001926        0.01      0.01      0.01      0.01         0.01
  YS02006553YS02006556        0.50      0.50      0.59      0.01         0.01
  YS02006556YS02006558        0.55      0.55      0.60      0.01         0.01
  YS02006558YS02006561        0.32      0.50      0.32      0.69         0.32
  YS02006561YS02001783        0.28      0.28      0.41      0.01         0.01
  YS02163301YS02001633        0.63      0.63      0.66      0.01         0.01
  YS02163601YS02164001        0.55      0.55      0.67      0.27         0.01
  YS02164001YS02001641        0.53      0.55      0.53      0.71         0.51
  YSB1154YSB6556              0.54      0.54      0.67      0.01         0.01
  YSB1171HS02004479           0.45      0.45      0.67      0.01         0.01
  YSB1174YSB1171              0.59      0.59      0.91      0.01         0.01
  YSB6556YSB1171              0.54      0.54      1.08      0.01         0.01
  
  
  ***************
  Pumping Summary
  ***************
  
  ---------------------------------------------------------------------------------------------------------
                                                  Min       Avg       Max     Total     Power    % Time Off
                        Percent   Number of      Flow      Flow      Flow    Volume     Usage    Pump Curve
  Pump                 Utilized   Start-Ups       LPS       LPS       LPS  10^6 ltr     Kw-hr    Low   High
  ---------------------------------------------------------------------------------------------------------
  CC-R1                   79.17           6      0.00    309.18    683.00     6.899    113.75    0.0   93.1
  CC-R2                    6.25           4      0.00    524.82    683.00     0.824     13.68    0.0   95.3
  CC-S1                   90.63           5      0.00     87.12    200.00     2.156     17.02    0.0   72.1
  CC-S2                   85.42           9      0.00     85.26    200.00     1.971     15.71    0.0   76.5
  JK-R1                   13.54           7      0.00    361.03   1000.00     1.458     10.64    0.0    0.0
  JK-R2                   25.00           8      0.00    104.58   1000.00     0.740      3.70    0.0    0.0
  JK-S                    72.92           8      0.00     67.10    300.00     1.425     29.00    0.0    0.0
  XR-1                    97.91           1      0.00     95.00     95.00     2.679      9.62    0.0    0.0
  XR-2                    93.95           1      0.00     95.00     95.00     2.570      8.78    0.0    0.0
  XR-3                     0.00           0      0.00      0.00      0.00     0.000      0.00    0.0    0.0
  XR-4                     0.00           0      0.00      0.00      0.00     0.000      0.00    0.0    0.0
  

  Analysis begun on:  Fri Jun 16 03:01:51 2023
  Analysis ended on:  Fri Jun 16 03:01:55 2023
  Total elapsed time: 00:00:04