
  OWA STORM WATER MANAGEMENT MODEL - VERSION v5.1.14 (OWA 2022-07-31)
  --------------------------------------------------------------

  WARNING 04: minimum elevation drop used for Conduit WS02004404WS02004405
  WARNING 03: negative offset ignored for Link YS02001904YS02001907
  
  *********************************************************
  NOTE: The summary statistics displayed in this report are
  based on results found at every computational time step,  
  not just on results from each reporting time step.
  *********************************************************
  
  ****************
  Analysis Options
  ****************
  Flow Units ............... LPS
  Process Models:
    Rainfall/Runoff ........ YES
    RDII ................... NO
    Snowmelt ............... NO
    Groundwater ............ NO
    Flow Routing ........... YES
    Ponding Allowed ........ NO
    Water Quality .......... NO
  Infiltration Method ...... HORTON
  Flow Routing Method ...... DYNWAVE
  Surcharge Method ......... EXTRAN
  Starting Date ............ 08/28/2015 08:00:00
  Ending Date .............. 08/28/2015 16:00:00
  Antecedent Dry Days ...... 8.0
  Report Time Step ......... 00:01:00
  Wet Time Step ............ 00:01:00
  Dry Time Step ............ 00:01:00
  Routing Time Step ........ 30.00 sec
  Variable Time Step ....... YES
  Maximum Trials ........... 8
  Number of Threads ........ 4
  Head Tolerance ........... 0.001500 m
  
  
  **************************        Volume         Depth
  Runoff Quantity Continuity     hectare-m            mm
  **************************     ---------       -------
  Initial LID Storage ......         0.072         1.184
  Total Precipitation ......         6.831       112.771
  Evaporation Loss .........         0.000         0.000
  Infiltration Loss ........         0.220         3.625
  Surface Runoff ...........         5.416        89.399
  Final Storage ............         1.269        20.947
  Continuity Error (%) .....        -0.014
  
  
  **************************        Volume        Volume
  Flow Routing Continuity        hectare-m      10^6 ltr
  **************************     ---------     ---------
  Dry Weather Inflow .......         0.630         6.296
  Wet Weather Inflow .......         5.414        54.143
  Groundwater Inflow .......         0.000         0.000
  RDII Inflow ..............         0.000         0.000
  External Inflow ..........         0.105         1.045
  External Outflow .........         3.975        39.749
  Flooding Loss ............         2.331        23.307
  Evaporation Loss .........         0.000         0.000
  Exfiltration Loss ........         0.000         0.000
  Initial Stored Volume ....         0.303         3.031
  Final Stored Volume ......         0.196         1.959
  Continuity Error (%) .....        -0.776
  
  
  *************************
  Highest Continuity Errors
  *************************
  Node JK-storage (-6.97%)
  Node WS02006256 (6.80%)
  Node YS02001884 (4.94%)
  Node YS02001583 (-4.85%)
  Node YS02001754 (-1.29%)
  
  
  ***************************
  Time-Step Critical Elements
  ***************************
  Link YS02001793JiankangQianchi (33.30%)
  Link WS02006280WS02006229 (31.27%)
  Link WS02006238WS02006235 (8.91%)
  Link WS02006252WS02006251 (4.02%)
  Link WS02004404WS02004405 (3.88%)
  
  
  ********************************
  Highest Flow Instability Indexes
  ********************************
  Link WS02006252WS02006251 (55)
  Link WS02004404WS02004405 (52)
  Link WS02006229WS02006228 (49)
  Link WS02004403WS02004404 (45)
  Link WS02006113WS02006111 (44)
  
  
  *************************
  Routing Time Step Summary
  *************************
  Minimum Time Step           :     0.01 sec
  Average Time Step           :     2.15 sec
  Maximum Time Step           :     6.46 sec
  Percent in Steady State     :     0.00
  Average Iterations per Step :     5.28
  Percent Not Converging      :    44.72
  
  
  ***************************
  Subcatchment Runoff Summary
  ***************************
  
  ------------------------------------------------------------------------------------------------------------------------------
                            Total      Total      Total      Total     Imperv       Perv      Total       Total     Peak  Runoff
                           Precip      Runon       Evap      Infil     Runoff     Runoff     Runoff      Runoff   Runoff   Coeff
  Subcatchment                 mm         mm         mm         mm         mm         mm         mm    10^6 ltr      LPS
  ------------------------------------------------------------------------------------------------------------------------------
  sub0                     112.77       0.00       0.00       1.05     103.65       6.84     110.49        0.09    17.00   0.980
  sub1                     112.77       0.00       0.00       1.63      88.85       9.49      98.34        0.65   123.58   0.872
  sub10                    112.77       0.00       0.00       1.03      83.25       6.30      89.55        0.99   186.95   0.794
  sub11                    112.77       0.00       0.00       0.94      77.37       5.87      83.24        0.97   183.49   0.738
  sub12                    112.77       0.00       0.00       1.64      78.65      10.25      88.90        0.78   148.08   0.788
  sub14                    112.77       0.00       0.00       1.02      73.27       6.31      79.59        0.76   143.75   0.706
  sub15                    112.77       0.00       0.00       4.69      65.88      23.89      89.77        1.54   285.31   0.796
  sub16                    112.77       0.00       0.00       4.98      64.25      27.05      91.30        0.96   180.59   0.810
  sub17                    112.77       0.00       0.00       5.33      70.91      28.44      99.36        0.85   160.10   0.881
  sub2                     112.77       0.00       0.00       7.37      64.96      31.26      96.22        0.90   150.72   0.853
  sub22                    112.77       0.00       0.00       8.29      61.49      38.66     100.16        6.33  1104.98   0.888
  sub23                    112.77       0.00       0.00       6.25      63.32      31.40      94.72        4.52   826.44   0.840
  sub3                     112.77       0.00       0.00       7.91      64.35      30.39      94.74        2.13   341.30   0.840
  sub4                     112.77       0.00       0.00       1.78      87.59       9.20      96.79        2.02   362.14   0.858
  sub5                     112.77       0.00       0.00       0.92      85.95       5.63      91.58        1.04   196.02   0.812
  sub60                    112.77       0.00       0.00       1.47      75.67       8.97      84.64        1.11   211.53   0.751
  sub61                    112.77       0.00       0.00       2.27      75.60      13.41      89.01        1.63   311.26   0.789
  sub62                    112.77       0.00       0.00       1.00      80.60       6.10      86.70        2.38   449.46   0.769
  sub63                    112.77       0.00       0.00       4.17      64.75      22.60      87.35        1.98   374.04   0.775
  sub64                    112.77       0.00       0.00       2.00      73.74      11.18      84.92        2.04   384.70   0.753
  sub65                    112.77       0.00       0.00       1.84      79.60      10.21      89.81        2.47   464.15   0.796
  sub66                    112.77       0.00       0.00       4.86      62.65      21.07      83.73        3.90   672.13   0.742
  sub67                    112.77       0.00       0.00       0.98      82.63       6.29      88.91        1.65   314.14   0.788
  sub68                    112.77       0.00       0.00       1.74      72.98      10.29      83.26        2.29   435.53   0.738
  sub69                    112.77       0.00       0.00       1.63      75.88      11.77      87.65        3.24   601.69   0.777
  sub7                     112.77       0.00       0.00       1.08      78.53       6.78      85.31        0.29    54.60   0.757
  sub70                    112.77       0.00       0.00       5.42      60.82      25.97      86.79        2.51   406.43   0.770
  sub71                    112.77       0.00       0.00       0.93      73.23       5.52      78.76        2.06   388.00   0.698
  sub72                    112.77       0.00       0.00       0.88      79.13       5.15      84.28        1.16   215.42   0.747
  sub8                     112.77       0.00       0.00       1.06      76.32       6.58      82.90        0.53   100.52   0.735
  sub9                     112.77       0.00       0.00       1.03      73.99       6.38      80.36        0.39    73.35   0.713
  

  ***********************
  LID Performance Summary
  ***********************

  --------------------------------------------------------------------------------------------------------------------
                                         Total      Evap     Infil   Surface    Drain    Initial     Final  Continuity
                                        Inflow      Loss      Loss   Outflow   Outflow   Storage   Storage       Error
  Subcatchment      LID Control             mm        mm        mm        mm        mm        mm        mm           %
  --------------------------------------------------------------------------------------------------------------------
  sub1              GreenRoof           112.77      0.00      0.00      0.00      0.00      7.05    119.82       -0.00
  sub10             GreenRoof           112.77      0.00      0.00      0.00      0.00      7.05    119.82       -0.00
  sub11             GreenRoof           112.77      0.00      0.00      0.00      0.00      7.05    119.82       -0.00
  sub12             GreenRoof           112.77      0.00      0.00      0.00      0.00      7.05    119.82       -0.00
  sub14             GreenRoof           112.77      0.00      0.00      0.00      0.00      7.05    119.82       -0.00
  sub15             GreenRoof           112.77      0.00      0.00      0.00      0.00      7.05    119.82       -0.00
  sub16             GreenRoof           112.77      0.00      0.00      0.00      0.00      7.05    119.82       -0.00
  sub17             GreenRoof           112.77      0.00      0.00      0.00      0.00      7.05    119.82       -0.00
  sub2              GreenRoof           112.77      0.00      0.00      0.00      0.00      7.05    119.82       -0.00
  sub22             GreenRoof           112.77      0.00      0.00      0.00      0.00      7.05    119.82       -0.00
  sub23             GreenRoof           112.77      0.00      0.00      0.00      0.00      7.05    119.82       -0.00
  sub3              GreenRoof           112.77      0.00      0.00      0.00      0.00      7.05    119.82       -0.00
  sub4              GreenRoof           112.77      0.00      0.00      0.00      0.00      7.05    119.82       -0.00
  sub5              GreenRoof           112.77      0.00      0.00      0.00      0.00      7.05    119.82       -0.00
  sub60             GreenRoof           112.77      0.00      0.00      0.00      0.00      7.05    119.82       -0.00
  sub61             GreenRoof           112.77      0.00      0.00      0.00      0.00      7.05    119.82       -0.00
  sub62             GreenRoof           112.77      0.00      0.00      0.00      0.00      7.05    119.82       -0.00
  sub63             GreenRoof           112.77      0.00      0.00      0.00      0.00      7.05    119.82       -0.00
  sub64             GreenRoof           112.77      0.00      0.00      0.00      0.00      7.05    119.82       -0.00
  sub65             GreenRoof           112.77      0.00      0.00      0.00      0.00      7.05    119.82       -0.00
  sub66             GreenRoof           112.77      0.00      0.00      0.00      0.00      7.05    119.82       -0.00
  sub67             GreenRoof           112.77      0.00      0.00      0.00      0.00      7.05    119.82       -0.00
  sub68             GreenRoof           112.77      0.00      0.00      0.00      0.00      7.05    119.82       -0.00
  sub69             GreenRoof           112.77      0.00      0.00      0.00      0.00      7.05    119.82       -0.00
  sub7              GreenRoof           112.77      0.00      0.00      0.00      0.00      7.05    119.82       -0.00
  sub70             GreenRoof           112.77      0.00      0.00      0.00      0.00      7.05    119.82       -0.00
  sub71             GreenRoof           112.77      0.00      0.00      0.00      0.00      7.05    119.82       -0.00
  sub72             GreenRoof           112.77      0.00      0.00      0.00      0.00      7.05    119.82       -0.00
  sub8              GreenRoof           112.77      0.00      0.00      0.00      0.00      7.05    119.82       -0.00
  sub9              GreenRoof           112.77      0.00      0.00      0.00      0.00      7.05    119.82       -0.00
  
  ******************
  Node Depth Summary
  ******************
  
  ---------------------------------------------------------------------------------
                                 Average  Maximum  Maximum  Time of Max    Reported
                                   Depth    Depth      HGL   Occurrence   Max Depth
  Node                 Type       Meters   Meters   Meters  days hr:min      Meters
  ---------------------------------------------------------------------------------
  HS02004478           JUNCTION     0.54     1.85    11.08     0  01:12        1.43
  HS02004479           JUNCTION     0.65     1.85    11.05     0  01:12        1.64
  HS02004480           JUNCTION     0.61     1.81    11.05     0  01:12        1.60
  HS02004770           JUNCTION     0.60     1.42    11.25     0  01:12        1.42
  HS02004777           JUNCTION     0.62     1.48    11.28     0  01:12        1.45
  HS02004785           JUNCTION     0.51     1.49    11.39     0  01:12        1.35
  HS02004788           JUNCTION     0.48     1.42    11.32     0  01:12        1.31
  HS02004792           JUNCTION     0.62     1.60    11.12     0  01:12        1.60
  HS02004799           JUNCTION     0.71     1.76    10.97     0  01:12        1.75
  HS02004802           JUNCTION     0.63     1.86    10.99     0  01:12        1.56
  HS02004807           JUNCTION     0.60     1.87    11.04     0  01:16        1.55
  HS02004817           JUNCTION     0.90     2.44    11.29     0  01:16        1.90
  HS02004824           JUNCTION     0.45     2.01    11.41     0  01:16        1.36
  HS02004830           JUNCTION     0.43     2.03    11.50     0  01:16        1.30
  HS02004837           JUNCTION     0.37     2.04    11.62     0  01:16        1.20
  HS02004842           JUNCTION     0.66     2.22    11.49     0  01:16        1.48
  HS02004848           JUNCTION     0.34     2.07    11.67     0  01:16        1.16
  HS02004852           JUNCTION     0.36     2.12    11.63     0  01:15        1.18
  HS02004856           JUNCTION     0.41     2.07    11.50     0  01:16        1.18
  HS02004862           JUNCTION     0.38     2.00    11.38     0  01:15        1.16
  HS02004870           JUNCTION     0.39     2.03    11.31     0  01:16        1.18
  HS02004876           JUNCTION     0.48     2.03    11.06     0  01:16        1.32
  HS02004881           JUNCTION     0.41     1.73    10.76     0  01:16        1.20
  HS02004901           JUNCTION     0.60     1.42    11.24     0  01:12        1.42
  WS02001211           JUNCTION     0.67     0.86     5.70     0  01:20        0.83
  WS02001212           JUNCTION     0.42     0.63     5.70     0  01:19        0.59
  WS02001213           JUNCTION     0.66     0.97     5.73     0  01:19        0.88
  WS02003059           JUNCTION     0.72     0.97     5.66     0  01:21        0.96
  WS02003060           JUNCTION     0.46     0.69     5.62     0  01:22        0.68
  WS02003066           JUNCTION     0.28     0.46     6.02     0  01:14        0.45
  WS02003067           JUNCTION     0.63     0.95     6.27     0  01:14        0.90
  WS02003069           JUNCTION     0.51     0.77     5.36     0  01:22        0.77
  WS02003072           JUNCTION     0.56     0.81     5.18     0  01:21        0.80
  WS02003073           JUNCTION     0.35     0.51     4.58     0  01:22        0.51
  WS02004138           JUNCTION     0.13     0.14     7.39     0  00:32        0.14
  WS02004139           JUNCTION     0.61     0.78     5.69     0  01:17        0.77
  WS02004401           JUNCTION     1.03     2.66     8.66     0  01:11        1.73
  WS02004402           JUNCTION     1.03     2.72     8.68     0  01:11        1.68
  WS02004403           JUNCTION     1.01     2.56     8.49     0  01:11        1.73
  WS02004404           JUNCTION     1.06     2.47     8.32     0  01:11        1.65
  WS02004405           JUNCTION     1.04     2.33     8.18     0  01:11        1.59
  WS02004406           JUNCTION     1.00     1.91     7.74     0  01:11        1.48
  WS02004407           JUNCTION     0.42     0.83     7.15     0  01:31        0.83
  WS02004409           JUNCTION     0.75     3.36     9.13     0  01:12        1.32
  WS02004410           JUNCTION     0.73     1.44     7.16     0  01:14        1.39
  WS02004411           JUNCTION     0.71     1.62     7.30     0  01:14        1.62
  WS02004412           JUNCTION     0.69     1.66     7.30     0  01:13        1.51
  WS02004413           JUNCTION     0.79     2.27     7.74     0  01:13        1.68
  WS02006109           JUNCTION     1.48     2.64     9.26     0  01:11        2.64
  WS02006110           JUNCTION     1.34     2.68     9.26     0  01:11        2.35
  WS02006111           JUNCTION     0.76     2.22     8.93     0  01:11        1.61
  WS02006112           JUNCTION     1.33     2.68     8.56     0  01:11        2.23
  WS02006113           JUNCTION     0.86     2.26     9.15     0  01:11        1.75
  WS02006115           JUNCTION     1.00     2.88     9.02     0  01:11        1.81
  WS02006116           JUNCTION     1.05     2.85     8.89     0  01:11        1.82
  WS02006228           JUNCTION     1.61     3.03     9.68     0  01:12        3.01
  WS02006229           JUNCTION     1.66     3.25     9.94     0  01:12        3.16
  WS02006230           JUNCTION     1.48     2.65     9.39     0  01:11        2.65
  WS02006231           JUNCTION     1.15     2.24     9.36     0  01:09        2.24
  WS02006232           JUNCTION     1.21     2.18     9.22     0  01:09        2.18
  WS02006234           JUNCTION     1.07     1.96     9.12     0  01:10        1.96
  WS02006235           JUNCTION     1.06     2.00     9.16     0  01:10        2.00
  WS02006238           JUNCTION     1.07     2.15     9.29     0  03:32        2.15
  WS02006239           JUNCTION     0.99     2.03     9.24     0  01:10        2.03
  WS02006240           JUNCTION     0.92     2.10     9.39     0  01:10        2.10
  WS02006242           JUNCTION     0.92     1.55     8.82     0  01:10        1.55
  WS02006243           JUNCTION     0.80     1.48     8.90     0  01:11        1.48
  WS02006245           JUNCTION     0.76     1.56     9.04     0  01:11        1.56
  WS02006247           JUNCTION     0.75     1.47     8.97     0  01:11        1.44
  WS02006248           JUNCTION     0.69     1.10     8.69     0  01:11        1.10
  WS02006249           JUNCTION     0.70     1.09     8.69     0  01:11        1.09
  WS02006251           JUNCTION     1.07     2.20     9.87     0  01:15        2.06
  WS02006252           JUNCTION     0.78     1.50     9.74     0  00:00        1.50
  WS02006253           JUNCTION     1.23     3.13    10.77     0  01:15        2.52
  WS02006256           JUNCTION     1.30     2.35     9.28     0  00:00        2.35
  WS02006280           JUNCTION     0.69     1.83    10.10     0  01:12        1.67
  WS02006284           JUNCTION     0.90     2.08    10.48     0  01:12        1.84
  WS02006287           JUNCTION     0.64     1.89    10.84     0  01:12        1.59
  WSF200               JUNCTION     0.30     0.55     5.79     0  01:14        0.51
  YS02001580           JUNCTION     0.29     1.05     9.59     0  01:13        0.81
  YS02001583           JUNCTION     0.33     1.14     9.64     0  01:13        0.82
  YS02001586           JUNCTION     0.48     1.13     9.30     0  01:13        1.13
  YS02001590           JUNCTION     0.61     1.40     9.26     0  01:13        1.40
  YS02001593           JUNCTION     0.55     1.33     9.19     0  01:13        1.30
  YS02001596           JUNCTION     0.72     1.69     9.11     0  01:51        1.69
  YS02001600           JUNCTION     0.83     1.87     9.00     0  01:13        1.87
  YS02001601           JUNCTION     1.01     2.06     8.90     0  01:12        2.06
  YS02001602           JUNCTION     0.89     1.87     8.77     0  01:13        1.87
  YS02001605           JUNCTION     0.83     1.78     8.68     0  01:13        1.78
  YS02001607           JUNCTION     0.77     1.68     8.53     0  02:52        1.68
  YS02001610           JUNCTION     0.82     1.68     8.48     0  01:13        1.68
  YS02001613           JUNCTION     0.77     1.70     8.54     0  02:52        1.70
  YS02001616           JUNCTION     0.71     1.61     8.52     0  01:13        1.61
  YS02001619           JUNCTION     0.69     1.61     8.54     0  02:52        1.61
  YS02001622           JUNCTION     0.68     1.62     8.52     0  01:13        1.62
  YS02001625           JUNCTION     0.92     1.78     8.38     0  01:13        1.78
  YS02001629           JUNCTION     0.83     1.85     8.40     0  01:13        1.84
  YS02001633           JUNCTION     0.89     1.99     8.45     0  01:37        1.95
  YS02001641           JUNCTION     0.80     1.81     8.25     0  01:37        1.78
  YS02001644           JUNCTION     0.77     1.76     8.19     0  01:29        1.69
  YS02001647           JUNCTION     0.54     1.55     8.16     0  01:37        1.39
  YS02001649           JUNCTION     0.60     1.65     8.04     0  01:38        1.47
  YS02001652           JUNCTION     0.47     2.10     8.70     0  01:37        1.39
  YS02001655           JUNCTION     0.35     2.05     8.90     0  02:04        1.17
  YS02001658           JUNCTION     0.22     0.71     7.85     0  02:27        0.67
  YS02001661           JUNCTION     0.17     0.39     7.79     0  02:27        0.39
  YS02001664           JUNCTION     0.09     0.23     8.16     0  01:31        0.23
  YS02001745           JUNCTION     0.08     0.19     7.71     0  01:29        0.19
  YS02001748           JUNCTION     0.19     0.59     7.66     0  02:28        0.58
  YS02001751           JUNCTION     0.27     0.79     7.67     0  02:26        0.77
  YS02001754           JUNCTION     0.40     1.78     8.39     0  01:52        1.08
  YS02001757           JUNCTION     0.60     1.58     7.84     0  02:52        1.58
  YS02001759           JUNCTION     0.54     1.43     7.80     0  02:02        1.36
  YS02001762           JUNCTION     0.53     1.41     7.81     0  01:57        1.33
  YS02001765           JUNCTION     0.50     1.36     7.81     0  01:57        1.28
  YS02001767           JUNCTION     0.49     1.47     7.96     0  01:57        1.21
  YS02001770           JUNCTION     0.50     1.78     8.27     0  01:59        1.78
  YS02001774           JUNCTION     0.56     1.65     8.08     0  01:59        1.65
  YS02001779           JUNCTION     0.38     1.12     7.81     0  02:28        1.06
  YS02001783           JUNCTION     0.46     1.22     7.36     0  01:51        1.22
  YS02001784           JUNCTION     0.45     1.10     7.17     0  01:20        1.09
  YS02001786           JUNCTION     0.36     0.87     6.90     0  01:20        0.86
  YS02001788           JUNCTION     0.27     0.62     6.59     0  01:25        0.61
  YS02001790           JUNCTION     0.31     0.71     6.36     0  01:21        0.71
  YS02001791           JUNCTION     0.19     0.43     5.90     0  01:42        0.43
  YS02001793           JUNCTION     0.11     0.25     5.09     0  01:30        0.25
  YS02001882           JUNCTION     0.56     1.62     8.33     0  01:51        1.60
  YS02001884           JUNCTION     0.65     1.71     8.33     0  01:20        1.67
  YS02001887           JUNCTION     0.73     1.79     8.32     0  01:20        1.75
  YS02001890           JUNCTION     0.76     1.81     8.32     0  01:51        1.81
  YS02001895           JUNCTION     0.53     1.60     8.35     0  01:51        1.60
  YS02001898           JUNCTION     0.54     1.66     8.39     0  01:51        1.66
  YS02001901           JUNCTION     0.65     1.78     8.39     0  01:51        1.78
  YS02001904           JUNCTION     0.63     1.67     8.30     0  01:51        1.67
  YS02001907           JUNCTION     0.94     1.96     8.25     0  01:20        1.96
  YS02001910           JUNCTION     0.75     1.80     8.31     0  01:21        1.79
  YS02001915           JUNCTION     0.57     1.63     8.35     0  01:21        1.60
  YS02001918           JUNCTION     0.37     1.31     8.38     0  01:21        1.30
  YS02001920           JUNCTION     0.44     1.40     8.40     0  01:21        1.38
  YS02001923           JUNCTION     0.29     1.16     8.42     0  01:21        1.14
  YS02001926           JUNCTION     0.28     1.03     8.47     0  01:21        0.91
  YS02001929           JUNCTION     0.17     0.75     8.44     0  01:21        0.71
  YS02006553           JUNCTION     0.94     1.97     8.25     0  01:46        1.97
  YS02006556           JUNCTION     0.91     1.92     8.24     0  01:51        1.92
  YS02006558           JUNCTION     0.94     1.94     8.21     0  01:28        1.94
  YS02006561           JUNCTION     0.29     0.89     7.55     0  01:20        0.86
  YS02163301           JUNCTION     0.84     1.91     8.43     0  01:37        1.88
  YS02163601           JUNCTION     0.89     1.97     8.37     0  01:37        1.93
  YS02164001           JUNCTION     0.80     1.86     8.32     0  01:37        1.82
  YSB1154              JUNCTION     0.78     1.92    10.97     0  01:12        1.84
  YSB1171              JUNCTION     0.92     1.95    10.85     0  01:12        1.95
  YSB1174              JUNCTION     0.74     1.83    10.94     0  01:12        1.77
  YSB6556              JUNCTION     0.68     1.77    10.94     0  01:12        1.71
  CC-1                 OUTFALL      0.00     0.00     0.00     0  00:00        0.00
  CC-2                 OUTFALL      0.00     0.00     0.00     0  00:00        0.00
  JK-1                 OUTFALL      0.00     0.00     0.00     0  00:00        0.00
  JK-2                 OUTFALL      0.00     0.00     0.00     0  00:00        0.00
  WSC                  OUTFALL      0.34     0.51     1.18     0  01:24        0.51
  CC-storage           STORAGE      0.62     1.57     7.07     0  02:57        1.57
  JK-storage           STORAGE      0.05     2.99     3.79     0  00:00        0.68
  XR-storage           STORAGE      7.76     9.26     7.26     0  08:00        9.26
  
  
  *******************
  Node Inflow Summary
  *******************
  
  -------------------------------------------------------------------------------------------------
                                  Maximum  Maximum                  Lateral       Total        Flow
                                  Lateral    Total  Time of Max      Inflow      Inflow     Balance
                                   Inflow   Inflow   Occurrence      Volume      Volume       Error
  Node                 Type           LPS      LPS  days hr:min    10^6 ltr    10^6 ltr     Percent
  -------------------------------------------------------------------------------------------------
  HS02004478           JUNCTION      0.00  2180.59     0  01:30           0        15.1      -0.011
  HS02004479           JUNCTION      0.00   344.96     0  01:30           0        1.83       0.039
  HS02004480           JUNCTION      0.00  2065.91     0  01:13           0        12.8       0.005
  HS02004770           JUNCTION    826.44   826.44     0  01:31        4.52        4.76       0.059
  HS02004777           JUNCTION      0.03   720.77     0  01:11    0.000864         3.4       0.159
  HS02004785           JUNCTION      0.15   727.01     0  01:11     0.00432         3.4       0.013
  HS02004788           JUNCTION    286.98   863.77     0  01:12        1.59        4.99       0.009
  HS02004792           JUNCTION   1105.26  1771.47     0  01:32        6.33        11.3       0.003
  HS02004799           JUNCTION    143.75  1757.46     0  01:13       0.757          11       0.050
  HS02004802           JUNCTION      0.00   436.84     0  01:31           0        2.27       0.150
  HS02004807           JUNCTION    183.49   436.67     0  01:31       0.967        2.31       0.190
  HS02004817           JUNCTION      0.60   405.85     0  01:12      0.0173         1.4       1.210
  HS02004824           JUNCTION    362.19   607.24     0  01:12        2.02         2.4       0.023
  HS02004830           JUNCTION      0.15   597.89     0  01:12     0.00432         1.4       0.082
  HS02004837           JUNCTION    193.30   753.76     0  01:13        1.17        2.37       0.030
  HS02004842           JUNCTION      0.00   697.71     0  01:13           0        2.17       0.609
  HS02004848           JUNCTION    341.30   926.18     0  01:15        2.13        4.19       0.008
  HS02004852           JUNCTION      0.00   923.55     0  01:15           0        4.08      -0.001
  HS02004856           JUNCTION     73.35   963.96     0  01:15       0.386        4.47       0.040
  HS02004862           JUNCTION    150.92  1047.07     0  01:15       0.902        5.37      -0.007
  HS02004870           JUNCTION    100.52  1125.57     0  01:15        0.53         5.9       0.002
  HS02004876           JUNCTION    123.58  1142.71     0  01:16       0.654        6.55       0.014
  HS02004881           JUNCTION     54.60  1198.24     0  01:16       0.287        6.84       0.009
  HS02004901           JUNCTION    180.59   446.37     0  01:31       0.956        2.01       0.087
  WS02001211           JUNCTION      7.35   380.21     0  01:18       0.212        5.45       0.608
  WS02001212           JUNCTION      0.00   497.69     0  01:16           0        5.43       0.272
  WS02001213           JUNCTION      0.00   459.63     0  01:15           0        5.42       0.336
  WS02003059           JUNCTION      0.00   525.79     0  01:14           0        5.43       0.591
  WS02003060           JUNCTION     16.53  1533.93     0  01:21       0.476        17.6       0.082
  WS02003066           JUNCTION      0.00  1252.87     0  01:18           0        11.8       0.013
  WS02003067           JUNCTION      0.00  1246.91     0  01:32           0        11.8       0.036
  WS02003069           JUNCTION      0.32  1490.08     0  01:22     0.00922        17.6       0.089
  WS02003072           JUNCTION      0.00  1480.68     0  01:23           0        17.6       0.119
  WS02003073           JUNCTION      1.82  1478.77     0  01:23      0.0524        17.6       0.121
  WS02004138           JUNCTION      0.00   380.00     0  00:00           0        5.25       0.053
  WS02004139           JUNCTION      0.32   321.25     0  01:17     0.00924        5.26       0.508
  WS02004401           JUNCTION      0.00  1261.00     0  01:14           0        11.9       0.089
  WS02004402           JUNCTION      0.00  1260.67     0  01:14           0        11.9       0.092
  WS02004403           JUNCTION      0.00  1260.39     0  01:14           0        11.9       0.087
  WS02004404           JUNCTION      0.16  1261.12     0  01:14     0.00467        11.9       0.073
  WS02004405           JUNCTION      0.04  1260.99     0  01:14      0.0011        11.8       0.106
  WS02004406           JUNCTION      0.00  1260.97     0  01:14           0        11.8       0.179
  WS02004407           JUNCTION      0.00  1261.05     0  01:14           0        11.8       0.011
  WS02004409           JUNCTION      0.00  1314.30     0  01:13           0        11.8       0.027
  WS02004410           JUNCTION      0.00  1345.62     0  01:12           0        11.8       0.038
  WS02004411           JUNCTION      0.00  1280.07     0  01:13           0        11.8       0.050
  WS02004412           JUNCTION      0.00  1247.00     0  01:32           0        11.8       0.066
  WS02004413           JUNCTION      0.00  1246.87     0  01:32           0        11.8       0.122
  WS02006109           JUNCTION      1.23  1264.81     0  01:11      0.0354        11.5       0.077
  WS02006110           JUNCTION      0.00  1264.75     0  01:11           0        11.1       0.071
  WS02006111           JUNCTION      0.00  1271.47     0  01:11           0        11.1       0.006
  WS02006112           JUNCTION    160.10  1261.15     0  01:14       0.852        11.9       0.172
  WS02006113           JUNCTION      0.00  1265.10     0  01:11           0        11.1       0.023
  WS02006115           JUNCTION      0.00  1260.63     0  01:14           0        11.9       0.064
  WS02006116           JUNCTION      0.00  1260.95     0  01:14           0        11.9      -0.017
  WS02006228           JUNCTION      0.00  1263.56     0  01:11           0        11.5       0.024
  WS02006229           JUNCTION      0.00  2181.80     0  01:31           0        17.2       0.040
  WS02006230           JUNCTION     10.28   964.45     0  01:31       0.296        7.95       0.123
  WS02006231           JUNCTION      0.00   648.43     0  01:09           0        5.11      -0.089
  WS02006232           JUNCTION      0.00   633.51     0  01:09           0        5.09       0.094
  WS02006234           JUNCTION      0.00   633.63     0  01:09           0        5.05      -0.012
  WS02006235           JUNCTION      0.00   690.53     0  01:10           0        4.74       0.057
  WS02006238           JUNCTION      0.00   684.40     0  01:10           0        4.65      -0.035
  WS02006239           JUNCTION      0.00   692.77     0  01:10           0        4.59      -0.057
  WS02006240           JUNCTION      0.00   846.20     0  01:10           0        4.56      -0.064
  WS02006242           JUNCTION      0.00   832.77     0  01:10           0        4.54      -0.041
  WS02006243           JUNCTION      0.00   757.90     0  01:11           0        3.69      -0.069
  WS02006245           JUNCTION      0.00   427.26     0  03:52           0        3.69       0.202
  WS02006247           JUNCTION      0.00   484.60     0  01:11           0        3.69      -0.001
  WS02006248           JUNCTION      0.00   519.22     0  01:11           0         4.1       0.016
  WS02006249           JUNCTION      0.00  1323.09     0  01:16           0        10.6       0.042
  WS02006251           JUNCTION      0.08  1323.00     0  01:16     0.00222        10.7      -0.021
  WS02006252           JUNCTION      0.00   419.90     0  01:11           0        4.54       0.004
  WS02006253           JUNCTION     17.00  1217.49     0  01:16      0.0894        6.94      -0.007
  WS02006256           JUNCTION      0.00   300.00     0  00:00           0        1.02       7.295
  WS02006280           JUNCTION      0.00  2180.37     0  01:31           0          15      -0.014
  WS02006284           JUNCTION      0.10  2180.74     0  01:30     0.00275          15       0.001
  WS02006287           JUNCTION      0.00  2180.74     0  01:31           0          15       0.046
  WSF200               JUNCTION      0.00  1291.30     0  01:14           0        11.8       0.004
  YS02001580           JUNCTION      0.00   103.11     0  01:13           0     0.00431      -0.198
  YS02001583           JUNCTION      0.00   142.49     0  01:12           0      0.0155      -4.625
  YS02001586           JUNCTION    406.43   406.46     0  01:33        2.51        2.52       0.062
  YS02001590           JUNCTION      0.00   317.92     0  02:29           0        2.26      -0.030
  YS02001593           JUNCTION      0.00   317.94     0  02:29           0        2.26       0.009
  YS02001596           JUNCTION      0.00   317.92     0  02:29           0        2.26      -0.019
  YS02001600           JUNCTION      0.00   317.99     0  01:51           0        2.26       0.025
  YS02001601           JUNCTION    601.69   919.21     0  01:31        3.24        5.51       0.014
  YS02001602           JUNCTION      0.00   576.13     0  01:12           0        3.28       0.014
  YS02001605           JUNCTION      0.00   576.14     0  01:12           0           3       0.024
  YS02001607           JUNCTION      0.00   576.12     0  01:12           0           3       0.055
  YS02001610           JUNCTION      0.00   556.07     0  01:12           0           3       0.087
  YS02001613           JUNCTION      0.00   558.44     0  01:13           0        2.52       0.072
  YS02001616           JUNCTION      0.00   569.53     0  01:13           0        2.52       0.004
  YS02001619           JUNCTION    672.13   938.89     0  01:13         3.9        6.42      -0.002
  YS02001622           JUNCTION      0.00   959.99     0  01:13           0        6.41      -0.007
  YS02001625           JUNCTION      0.00   936.62     0  01:13           0        6.41       0.175
  YS02001629           JUNCTION      0.00   937.64     0  01:13           0         6.3      -0.008
  YS02001633           JUNCTION    464.35  1328.12     0  01:18        2.48        8.78       0.038
  YS02001641           JUNCTION      0.00  1327.61     0  01:18           0        8.78       0.034
  YS02001644           JUNCTION    384.74  1681.43     0  01:18        2.04        10.8       0.029
  YS02001647           JUNCTION      0.00  1681.96     0  01:18           0        10.8      -0.000
  YS02001649           JUNCTION      0.00  2081.15     0  01:38           0        12.8       0.024
  YS02001652           JUNCTION      0.00   614.87     0  01:37           0           2      -0.325
  YS02001655           JUNCTION      0.15   739.06     0  01:30     0.00443        1.99      -0.530
  YS02001658           JUNCTION      0.00   435.88     0  01:35           0        1.99       0.060
  YS02001661           JUNCTION      0.00   374.02     0  01:31           0        1.98       0.016
  YS02001664           JUNCTION    374.04   374.04     0  01:31        1.98        1.98      -0.009
  YS02001745           JUNCTION    211.53   211.53     0  01:30        1.11        1.11       0.097
  YS02001748           JUNCTION      0.04   243.75     0  01:53      0.0013        1.11      -0.031
  YS02001751           JUNCTION      0.01   734.60     0  01:53    0.000317        1.19       0.182
  YS02001754           JUNCTION      0.26   677.96     0  01:52     0.00749         1.2      -1.278
  YS02001757           JUNCTION      0.00  2946.44     0  01:29           0          18       0.026
  YS02001759           JUNCTION    311.30   784.45     0  01:28        1.63        4.03      -0.013
  YS02001762           JUNCTION      0.00   509.16     0  01:44           0         2.4      -0.002
  YS02001765           JUNCTION      0.00   491.70     0  01:40           0        2.39       0.007
  YS02001767           JUNCTION      0.54   485.61     0  01:28      0.0154        2.39      -0.013
  YS02001770           JUNCTION    449.61   488.35     0  01:28        2.38        2.46      -0.012
  YS02001774           JUNCTION      0.00   132.21     0  01:19           0        0.15       0.803
  YS02001779           JUNCTION      0.01   103.78     0  01:42    0.000144      0.0634      -0.645
  YS02001783           JUNCTION      0.00  1142.50     0  01:30           0        7.02       0.005
  YS02001784           JUNCTION      1.06  1143.81     0  01:30      0.0305        7.05       0.007
  YS02001786           JUNCTION      0.06  1143.55     0  01:30     0.00162        7.06       0.010
  YS02001788           JUNCTION      0.07  1143.67     0  01:30     0.00204        7.06       0.004
  YS02001790           JUNCTION      0.15  1157.36     0  01:21     0.00446        7.06      -0.003
  YS02001791           JUNCTION      0.00  1266.90     0  01:32           0        7.06      -0.003
  YS02001793           JUNCTION      0.00  1226.34     0  01:39           0        7.06      -0.045
  YS02001882           JUNCTION      0.00    68.77     0  01:11           0      0.0155       4.812
  YS02001884           JUNCTION      0.00   124.69     0  01:11           0      0.0521       5.198
  YS02001887           JUNCTION    314.59   320.47     0  01:16        1.67         1.7       0.250
  YS02001890           JUNCTION      0.00   323.52     0  01:16           0        1.66       0.311
  YS02001895           JUNCTION      0.00   326.02     0  01:16           0        1.65       0.173
  YS02001898           JUNCTION      0.00   334.37     0  01:16           0        1.65      -0.036
  YS02001901           JUNCTION      0.00   347.64     0  01:16           0        1.66       0.208
  YS02001904           JUNCTION      0.00   345.73     0  01:16           0        1.67       0.167
  YS02001907           JUNCTION      0.00   999.23     0  01:22           0        4.98       0.364
  YS02001910           JUNCTION      0.00   688.12     0  01:22           0         3.3       0.218
  YS02001915           JUNCTION    388.02   687.44     0  01:22        2.06        3.31       0.041
  YS02001918           JUNCTION      0.00   310.42     0  01:22           0        1.25       0.024
  YS02001920           JUNCTION      2.87   310.03     0  01:22      0.0827        1.25       0.080
  YS02001923           JUNCTION      0.04   368.30     0  01:22     0.00109        1.16      -0.024
  YS02001926           JUNCTION      0.05   290.61     0  01:21      0.0015        1.16       0.018
  YS02001929           JUNCTION    215.42   215.42     0  01:31        1.16        1.16      -0.008
  YS02006553           JUNCTION      0.00   774.73     0  01:45           0        4.78       0.246
  YS02006556           JUNCTION      0.00   774.76     0  01:51           0         4.8       0.173
  YS02006558           JUNCTION    436.41  1143.30     0  01:30        2.32        7.08       0.043
  YS02006561           JUNCTION      0.00  1142.60     0  01:30           0        7.02       0.003
  YS02163301           JUNCTION      0.00   914.67     0  01:17           0        6.31       0.027
  YS02163601           JUNCTION      0.11  1327.50     0  01:18     0.00317        8.77       0.058
  YS02164001           JUNCTION      0.00  1327.72     0  01:18           0        8.77       0.031
  YSB1154              JUNCTION    196.02   196.02     0  01:30        1.04        1.04       0.132
  YSB1171              JUNCTION      0.00   344.62     0  01:29           0        1.82       0.356
  YSB1174              JUNCTION    148.08   148.08     0  01:30       0.777       0.777       0.150
  YSB6556              JUNCTION      0.00   196.18     0  01:30           0        1.04       0.117
  CC-1                 OUTFALL       0.00   683.00     0  00:00           0        7.73       0.000
  CC-2                 OUTFALL       0.00   683.00     0  00:00           0        7.73       0.000
  JK-1                 OUTFALL       0.00  1000.00     0  00:00           0        3.35       0.000
  JK-2                 OUTFALL       0.00  1000.00     0  00:00           0        3.35       0.000
  WSC                  OUTFALL       0.00  1477.36     0  01:24           0        17.6       0.000
  CC-storage           STORAGE       0.00  2948.11     0  01:29           0        20.2      -0.262
  JK-storage           STORAGE       0.00  1310.74     0  01:30           0        7.22      -6.512
  XR-storage           STORAGE     200.00   200.00     0  00:00        5.76        6.36       0.001
  
  
  **********************
  Node Surcharge Summary
  **********************
  
  Surcharging occurs when water rises above the top of the highest conduit.
  ---------------------------------------------------------------------
                                               Max. Height   Min. Depth
                                   Hours       Above Crown    Below Rim
  Node                 Type      Surcharged         Meters       Meters
  ---------------------------------------------------------------------
  HS02004478           JUNCTION        1.45          0.928        0.012
  HS02004479           JUNCTION        1.80          1.050        0.000
  HS02004480           JUNCTION        1.85          1.100        0.000
  HS02004770           JUNCTION        1.75          0.720        0.000
  HS02004777           JUNCTION        1.75          0.780        0.000
  HS02004785           JUNCTION        1.66          0.790        0.000
  HS02004788           JUNCTION        1.58          0.720        0.000
  HS02004792           JUNCTION        1.82          0.900        0.000
  HS02004799           JUNCTION        1.90          1.060        0.000
  HS02004802           JUNCTION        1.83          1.147        0.063
  HS02004807           JUNCTION        1.80          1.170        0.050
  HS02004817           JUNCTION        2.04          1.740        0.000
  HS02004824           JUNCTION        1.50          1.310        0.000
  HS02004830           JUNCTION        1.41          1.330        0.000
  HS02004837           JUNCTION        1.32          1.340        0.000
  HS02004842           JUNCTION        1.73          1.520        0.000
  HS02004848           JUNCTION        1.27          1.370        0.000
  HS02004852           JUNCTION        1.31          1.420        0.000
  HS02004856           JUNCTION        1.30          1.300        0.000
  HS02004862           JUNCTION        1.37          1.300        0.000
  HS02004870           JUNCTION        1.44          1.327        0.073
  HS02004876           JUNCTION        1.69          1.331        0.229
  HS02004881           JUNCTION        1.64          1.027        0.423
  HS02004901           JUNCTION        1.76          0.720        0.000
  WS02004401           JUNCTION        2.21          1.660        0.000
  WS02004402           JUNCTION        2.24          1.718        0.022
  WS02004403           JUNCTION        2.25          1.556        0.474
  WS02004404           JUNCTION        2.41          1.469        1.311
  WS02004405           JUNCTION        2.38          1.329        1.471
  WS02004406           JUNCTION        2.35          0.910        1.540
  WS02004409           JUNCTION        1.90          2.360        0.000
  WS02004410           JUNCTION        1.88          0.439        2.101
  WS02004411           JUNCTION        1.87          0.625        1.905
  WS02004412           JUNCTION        1.83          0.662        1.648
  WS02004413           JUNCTION        2.01          1.266        0.934
  WS02006109           JUNCTION        2.99          1.820        0.000
  WS02006110           JUNCTION        2.69          1.765        0.085
  WS02006111           JUNCTION        1.97          1.409        0.461
  WS02006112           JUNCTION        2.86          1.680        0.000
  WS02006113           JUNCTION        2.00          1.458        0.472
  WS02006115           JUNCTION        2.12          1.874        0.376
  WS02006116           JUNCTION        2.14          1.788        0.502
  WS02006228           JUNCTION        2.97          2.200        0.000
  WS02006229           JUNCTION        1.91          1.070        0.000
  WS02006230           JUNCTION        2.46          1.570        0.000
  WS02006231           JUNCTION        2.72          1.530        0.000
  WS02006232           JUNCTION        3.04          1.480        0.000
  WS02006234           JUNCTION        2.82          1.240        0.000
  WS02006235           JUNCTION        2.92          1.290        0.000
  WS02006238           JUNCTION        2.97          1.430        0.000
  WS02006239           JUNCTION        2.92          1.290        0.000
  WS02006240           JUNCTION        2.92          1.390        0.000
  WS02006242           JUNCTION        3.04          0.820        0.000
  WS02006243           JUNCTION        2.93          0.770        0.000
  WS02006245           JUNCTION        2.93          0.850        0.000
  WS02006247           JUNCTION        2.96          0.760        0.000
  WS02006248           JUNCTION        2.91          0.380        0.000
  WS02006249           JUNCTION        2.94          0.390        0.000
  WS02006251           JUNCTION        2.79          1.174        0.006
  WS02006252           JUNCTION        3.14          1.100        0.000
  WS02006253           JUNCTION        2.79          2.090        0.390
  WS02006256           JUNCTION        6.34          2.050        0.000
  WS02006280           JUNCTION        1.87          0.780        0.000
  WS02006284           JUNCTION        1.83          0.800        0.000
  WS02006287           JUNCTION        1.74          0.890        0.000
  YS02001580           JUNCTION        1.67          0.450        0.000
  YS02001583           JUNCTION        1.69          0.500        0.000
  YS02001586           JUNCTION        1.83          0.510        0.000
  YS02001590           JUNCTION        1.88          0.750        0.000
  YS02001593           JUNCTION        1.88          0.713        0.127
  YS02001596           JUNCTION        1.94          0.963        0.107
  YS02001600           JUNCTION        1.99          1.190        0.000
  YS02001601           JUNCTION        2.14          1.440        0.000
  YS02001602           JUNCTION        2.09          1.270        0.000
  YS02001605           JUNCTION        2.07          1.180        0.000
  YS02001607           JUNCTION        1.83          0.680        0.000
  YS02001610           JUNCTION        1.85          0.680        0.000
  YS02001613           JUNCTION        1.83          0.700        0.000
  YS02001616           JUNCTION        1.81          0.610        0.000
  YS02001619           JUNCTION        1.80          0.610        0.000
  YS02001622           JUNCTION        1.80          0.620        0.000
  YS02001625           JUNCTION        1.91          0.780        0.000
  YS02001629           JUNCTION        1.77          0.470        0.000
  YS02001633           JUNCTION        1.92          0.973        0.087
  YS02001641           JUNCTION        1.88          0.814        0.286
  YS02001644           JUNCTION        1.87          0.760        0.160
  YS02001647           JUNCTION        1.67          0.553        0.347
  YS02001649           JUNCTION        1.76          0.652        0.398
  YS02001652           JUNCTION        1.06          1.072        0.058
  YS02001655           JUNCTION        0.06          1.049        0.151
  YS02001754           JUNCTION        0.03          0.729        0.421
  YS02001757           JUNCTION        1.78          0.578        0.632
  YS02001759           JUNCTION        1.67          0.433        0.777
  YS02001762           JUNCTION        1.60          0.415        0.735
  YS02001765           JUNCTION        1.40          0.361        0.739
  YS02001767           JUNCTION        1.25          0.466        0.564
  YS02001770           JUNCTION        1.20          0.750        0.170
  YS02001774           JUNCTION        1.68          0.654        0.396
  YS02001779           JUNCTION        0.02          0.121        0.559
  YS02001783           JUNCTION        1.29          0.418        1.182
  YS02001784           JUNCTION        1.24          0.303        1.187
  YS02001786           JUNCTION        0.91          0.072        1.358
  YS02001882           JUNCTION        1.07          0.618        0.212
  YS02001884           JUNCTION        1.13          0.650        0.220
  YS02001887           JUNCTION        1.27          0.736        0.214
  YS02001890           JUNCTION        1.30          0.760        0.000
  YS02001895           JUNCTION        1.04          0.600        0.150
  YS02001898           JUNCTION        1.03          0.628        0.112
  YS02001901           JUNCTION        1.24          0.785        0.085
  YS02001904           JUNCTION        1.21          0.671        0.179
  YS02001907           JUNCTION        1.79          0.950        0.000
  YS02001910           JUNCTION        1.35          0.798        0.302
  YS02001915           JUNCTION        1.07          0.628        0.372
  YS02001918           JUNCTION        0.88          0.314        0.496
  YS02001920           JUNCTION        0.91          0.395        0.745
  YS02001926           JUNCTION        0.01          0.027        0.873
  YS02006553           JUNCTION        1.81          0.971        0.219
  YS02006556           JUNCTION        1.52          0.885        0.465
  YS02006558           JUNCTION        1.50          0.842        0.558
  YS02006561           JUNCTION        0.83          0.085        1.065
  YS02163301           JUNCTION        1.91          0.914        0.116
  YS02163601           JUNCTION        1.93          0.974        0.106
  YS02164001           JUNCTION        1.89          0.864        0.236
  YSB1154              JUNCTION        1.94          1.215        0.185
  YSB1171              JUNCTION        1.94          1.100        0.000
  YSB1174              JUNCTION        1.92          1.127        0.123
  YSB6556              JUNCTION        1.89          1.069        0.031
  
  
  *********************
  Node Flooding Summary
  *********************
  
  Flooding refers to all water that overflows a node, whether it ponds or not.
  --------------------------------------------------------------------------
                                                             Total   Maximum
                                 Maximum   Time of Max       Flood    Ponded
                        Hours       Rate    Occurrence      Volume     Depth
  Node                 Flooded       LPS   days hr:min    10^6 ltr    Meters
  --------------------------------------------------------------------------
  HS02004479              0.01     12.67      0  01:12       0.000     0.000
  HS02004480              0.01     45.36      0  01:12       0.000     0.000
  HS02004770              0.98    180.93      0  01:31       0.304     0.000
  HS02004777              0.01     56.96      0  01:12       0.000     0.000
  HS02004785              0.01    112.99      0  01:12       0.000     0.000
  HS02004788              0.01     32.84      0  01:12       0.000     0.000
  HS02004792              0.98    512.93      0  01:31       1.044     0.000
  HS02004799              0.01     54.32      0  01:12       0.000     0.000
  HS02004817              0.01     16.78      0  01:16       0.000     0.000
  HS02004824              0.01     33.37      0  01:16       0.000     0.000
  HS02004830              0.01     23.33      0  01:16       0.000     0.000
  HS02004837              0.01     35.68      0  01:16       0.000     0.000
  HS02004842              0.01    107.30      0  01:16       0.001     0.000
  HS02004848              0.01     55.14      0  01:16       0.000     0.000
  HS02004852              0.01    216.32      0  01:15       0.000     0.000
  HS02004856              0.01     28.05      0  01:16       0.000     0.000
  HS02004862              0.01    269.38      0  01:15       0.000     0.000
  HS02004901              1.33    446.37      0  01:31       1.765     0.000
  WS02004401              0.01     76.01      0  01:11       0.000     0.000
  WS02004409              0.01    251.84      0  01:12       0.000     0.000
  WS02006109              1.26    141.07      0  01:31       0.408     0.000
  WS02006112              0.01    260.24      0  01:11       0.002     0.000
  WS02006228              0.01      7.67      0  01:12       0.000     0.000
  WS02006229              0.01     22.41      0  01:12       0.000     0.000
  WS02006230              1.84    511.45      0  01:30       2.583     0.000
  WS02006231              0.01    132.84      0  01:09       0.000     0.000
  WS02006232              0.62    138.18      0  01:09       0.001     0.000
  WS02006234              1.87     85.78      0  01:59       0.398     0.000
  WS02006235              0.01     57.91      0  01:10       0.000     0.000
  WS02006238              0.01      2.83      0  03:32       0.000     0.000
  WS02006239              0.01    331.55      0  01:10       0.001     0.000
  WS02006240              0.01    722.46      0  01:10       0.002     0.000
  WS02006242              1.92    793.65      0  01:10       0.848     0.000
  WS02006243              0.01    729.33      0  01:11       0.004     0.000
  WS02006245              0.01    272.37      0  01:11       0.001     0.000
  WS02006247              0.01    438.33      0  01:11       0.002     0.000
  WS02006248              2.01    511.78      0  01:11       2.328     0.000
  WS02006249              2.62   1282.94      0  01:16       8.452     0.000
  WS02006252              1.42    371.19      0  01:11       0.819     0.000
  WS02006256              0.96    299.60      0  02:56       0.822     0.000
  WS02006280              0.01     16.00      0  01:12       0.000     0.000
  WS02006284              0.01     27.34      0  01:12       0.000     0.000
  WS02006287              0.01     59.47      0  01:12       0.000     0.000
  YS02001580              0.01     63.29      0  01:13       0.000     0.000
  YS02001583              0.01     54.79      0  01:13       0.000     0.000
  YS02001586              1.20     88.96      0  01:33       0.244     0.000
  YS02001590              0.01      6.33      0  01:13       0.000     0.000
  YS02001600              0.01      1.36      0  01:13       0.000     0.000
  YS02001601              1.77    521.42      0  01:31       2.226     0.000
  YS02001602              1.45     61.96      0  02:03       0.279     0.000
  YS02001605              0.01      2.52      0  01:13       0.000     0.000
  YS02001607              0.01      0.45      0  02:52       0.000     0.000
  YS02001610              1.20    199.86      0  01:33       0.484     0.000
  YS02001613              0.01      0.79      0  02:52       0.000     0.000
  YS02001616              0.01     10.06      0  01:13       0.000     0.000
  YS02001619              0.01      1.17      0  02:52       0.000     0.000
  YS02001622              0.01    136.62      0  01:13       0.000     0.000
  YS02001625              0.84    129.05      0  01:29       0.110     0.000
  YS02001629              0.01    194.39      0  01:13       0.001     0.000
  YS02001890              0.01      1.15      0  01:51       0.000     0.000
  YS02001907              0.47    285.42      0  01:22       0.189     0.000
  YSB1171                 0.01     63.46      0  01:12       0.001     0.000
  
  
  **********************
  Storage Volume Summary
  **********************
  
  --------------------------------------------------------------------------------------------------
                         Average     Avg  Evap Exfil       Maximum     Max    Time of Max    Maximum
                          Volume    Pcnt  Pcnt  Pcnt        Volume    Pcnt     Occurrence    Outflow
  Storage Unit           1000 m3    Full  Loss  Loss       1000 m3    Full    days hr:min        LPS
  --------------------------------------------------------------------------------------------------
  CC-storage               1.730      27     0     0         4.376      68       0  02:57    1783.53
  JK-storage               0.003       1     0     0         0.150      52       0  00:00    2300.00
  XR-storage               0.931      65     0     0         1.111      77       0  08:00     380.00
  
  
  ***********************
  Outfall Loading Summary
  ***********************
  
  -----------------------------------------------------------
                         Flow       Avg       Max       Total
                         Freq      Flow      Flow      Volume
  Outfall Node           Pcnt       LPS       LPS    10^6 ltr
  -----------------------------------------------------------
  CC-1                  62.81    683.00    683.00       7.734
  CC-2                  62.81    683.00    683.00       7.734
  JK-1                  20.38    996.52   1000.00       3.352
  JK-2                  20.38    996.52   1000.00       3.352
  WSC                   99.96    836.25   1477.36      17.578
  -----------------------------------------------------------
  System                53.27   4195.29   1477.36      39.749
  
  
  ********************
  Link Flow Summary
  ********************
  
  -----------------------------------------------------------------------------
                                 Maximum  Time of Max   Maximum    Max/    Max/
                                  |Flow|   Occurrence   |Veloc|    Full    Full
  Link                 Type          LPS  days hr:min     m/sec    Flow   Depth
  -----------------------------------------------------------------------------
  1                    CONDUIT   1477.36     0  01:24      3.68    0.51    0.51
  HS02004478WS02006287 CONDUIT   2180.74     0  01:31      2.91    0.61    1.00
  HS02004479HS02004480 CONDUIT    345.25     0  01:29      0.66    0.33    1.00
  HS02004480HS02004478 CONDUIT   2063.64     0  01:13      2.95    8.69    1.00
  HS02004770HS02004777 CONDUIT    720.74     0  01:11      1.03    1.32    1.00
  HS02004777HS02004785 CONDUIT    726.86     0  01:11      1.11    0.89    1.00
  HS02004785HS02004788 CONDUIT    651.71     0  01:12      1.37    4.91    1.00
  HS02004788HS02004792 CONDUIT    862.96     0  01:12      1.43    0.57    1.00
  HS02004792HS02004799 CONDUIT   1626.58     0  01:13      2.32    1.00    1.00
  HS02004799HS02004480 CONDUIT   1757.91     0  01:13      2.51    2.22    1.00
  HS02004802HS02004478 CONDUIT    436.73     0  01:31      0.72    0.39    1.00
  HS02004807HS02004802 CONDUIT    436.84     0  01:31      0.62    0.83    1.00
  HS02004817HS02004807 CONDUIT    405.25     0  01:12      0.58    0.24    1.00
  HS02004817HS02004824 CONDUIT    405.51     0  01:12      0.58    0.18    1.00
  HS02004824HS02004830 CONDUIT    597.74     0  01:12      0.91    0.78    1.00
  HS02004830HS02004837 CONDUIT    584.08     0  01:13      0.88    0.58    1.00
  HS02004837HS02004842 CONDUIT    697.71     0  01:13      1.00    0.42    1.00
  HS02004842HS02004848 CONDUIT    697.95     0  01:13      1.11    0.41    1.00
  HS02004848HS02004852 CONDUIT    923.55     0  01:15      1.57    1.04    1.00
  HS02004852HS02004856 CONDUIT    894.20     0  01:15      1.44    1.02    1.00
  HS02004856HS02004862 CONDUIT    939.34     0  01:15      1.65    0.94    1.00
  HS02004862HS02004870 CONDUIT   1030.53     0  01:15      1.83    1.11    1.00
  HS02004870HS02004876 CONDUIT   1031.43     0  01:16      1.62    0.68    1.00
  HS02004876HS02004881 CONDUIT   1145.34     0  01:16      2.10   12.18    1.00
  HS02004881HS02006253 CONDUIT   1200.79     0  01:16      2.92    0.23    1.00
  HS02004901HS02004770 CONDUIT    265.79     0  02:10      0.38    1.00    1.00
  WS02001211WS02001212 CONDUIT    315.23     0  01:20      0.54    0.24    0.71
  WS02001212WS02001213 CONDUIT    342.88     0  01:21      1.04    0.53    0.61
  WS02001213WS02003059 CONDUIT    310.63     0  01:15      0.47    0.51    0.91
  WS02003059WS02003060 CONDUIT    432.44     0  01:15      0.77    0.28    0.82
  WS02003060WS02003069 CONDUIT   1489.76     0  01:22      2.32    0.58    0.60
  WS02003066WSF200     CONDUIT   1291.30     0  01:14      3.71    0.22    0.39
  WS02003067WS02003066 CONDUIT   1252.87     0  01:18      2.00    0.40    0.58
  WS02003069WS02003072 CONDUIT   1480.68     0  01:23      1.89    0.71    0.66
  WS02003072WS02003073 CONDUIT   1476.95     0  01:23      2.04    3.19    0.61
  WS02004138WS02004139 CONDUIT    190.00     0  00:32      2.16    0.04    0.43
  WS02004139WS02001211 CONDUIT    372.86     0  01:18      0.54    0.47    0.62
  WS02004401WS02004402 CONDUIT   1260.67     0  01:14      1.61    1.51    1.00
  WS02004402WS02004403 CONDUIT   1260.39     0  01:14      1.60    1.81    1.00
  WS02004403WS02004404 CONDUIT   1260.96     0  01:14      1.61    0.91    1.00
  WS02004404WS02004405 CONDUIT   1260.95     0  01:14      1.61   12.35    1.00
  WS02004405WS02004406 CONDUIT   1260.97     0  01:14      1.61    2.49    1.00
  WS02004406WS02004407 CONDUIT   1261.05     0  01:14      2.06    0.56    0.92
  WS02004407WS02004409 CONDUIT   1314.30     0  01:13      2.48    0.47    0.92
  WS02004409WS02004410 CONDUIT   1345.62     0  01:12      1.90    1.74    1.00
  WS02004410WS02004411 CONDUIT   1280.07     0  01:13      1.87    1.75    1.00
  WS02004411WS02004412 CONDUIT   1247.00     0  01:32      1.71    1.77    1.00
  WS02004412WS02004413 CONDUIT   1246.87     0  01:32      1.64    0.84    1.00
  WS02004413WS02003067 CONDUIT   1246.91     0  01:32      1.95    0.53    0.76
  WS02006109WS02006110 CONDUIT   1264.75     0  01:11      2.52    2.43    1.00
  WS02006110WS02006113 CONDUIT   1265.10     0  01:11      2.52    1.15    1.00
  WS02006111WS02006112 CONDUIT   1143.45     0  01:11      2.28    0.54    1.00
  WS02006112WS02006115 CONDUIT   1260.63     0  01:14      1.61    0.74    1.00
  WS02006113WS02006111 CONDUIT   1271.47     0  01:11      2.78    1.52    1.00
  WS02006115WS02006116 CONDUIT   1260.95     0  01:14      1.61    1.62    1.00
  WS02006116WS02004401 CONDUIT   1261.00     0  01:14      1.61    1.74    1.00
  WS02006228WS02006109 CONDUIT   1263.58     0  01:11      2.51    5.52    1.00
  WS02006229WS02006228 CONDUIT   1263.56     0  01:11      2.51    4.19    1.00
  WS02006230WS02006229 CONDUIT    954.17     0  01:31      2.48   21.23    1.00
  WS02006231WS02006230 CONDUIT    648.43     0  01:09      1.69    9.84    1.00
  WS02006232WS02006231 CONDUIT    633.51     0  01:09      1.65    1.33    1.00
  WS02006234WS02006232 CONDUIT    633.63     0  01:09      1.90    1.28    1.00
  WS02006235WS02006234 CONDUIT    645.08     0  01:10      1.71    6.81    1.00
  WS02006238WS02006235 CONDUIT    684.40     0  01:10      1.98    1.53    1.00
  WS02006239WS02006238 CONDUIT    663.71     0  01:10      2.02    2.12    1.00
  WS02006240WS02006239 CONDUIT    645.99     0  01:10      1.84    2.03    1.00
  WS02006242WS02006240 CONDUIT    538.48     0  01:10      1.40    2.14    1.00
  WS02006243WS02006242 CONDUIT    470.60     0  01:11      1.32    1.01    1.00
  WS02006245WS02006243 CONDUIT    426.60     0  03:52      1.38    1.26    1.00
  WS02006247WS02006245 CONDUIT    427.26     0  03:52      1.37    3.39    1.00
  WS02006248WS02006247 CONDUIT    427.83     0  03:52      1.41    0.93    1.00
  WS02006249WS02006248 CONDUIT    436.83     0  01:11      1.38    2.39    1.00
  WS02006251WS02006249 CONDUIT   1323.09     0  01:16      3.44    3.82    1.00
  WS02006252WS02006251 CONDUIT    408.76     0  01:11      4.83    1.50    1.00
  WS02006253WS02006251 CONDUIT   1218.77     0  01:16      3.17    3.65    1.00
  WS02006256WS02006235 CONDUIT    288.93     0  00:00      4.23    3.06    1.00
  WS02006280WS02006229 CONDUIT   2181.80     0  01:31      5.27    0.47    1.00
  WS02006284WS02006280 CONDUIT   2180.37     0  01:31      3.32    0.91    1.00
  WS02006287WS02006284 CONDUIT   2180.65     0  01:30      3.09    1.01    1.00
  WSF200WS02003060     CONDUIT   1404.80     0  01:14      3.10    0.31    0.50
  YS02001580YS02001583 CONDUIT    103.11     0  01:13      0.65    0.40    1.00
  YS02001583YS02001586 CONDUIT    127.73     0  01:12      0.58    0.19    1.00
  YS02001586YS02001590 CONDUIT    317.92     0  02:29      1.29    0.56    1.00
  YS02001590YS02001593 CONDUIT    317.94     0  02:29      1.12    2.00    1.00
  YS02001593YS02001596 CONDUIT    317.92     0  02:29      1.72    0.50    1.00
  YS02001596YS02001600 CONDUIT    317.99     0  01:51      1.26    0.62    1.00
  YS02001600YS02001601 CONDUIT    318.16     0  01:51      1.13    0.55    1.00
  YS02001601YS02001602 CONDUIT    576.13     0  01:12      2.04    2.08    1.00
  YS02001602YS02001605 CONDUIT    576.14     0  01:12      2.04   12.19    1.00
  YS02001605YS02001607 CONDUIT    576.12     0  01:12      2.04    3.16    1.00
  YS02001607YS02001610 CONDUIT    556.07     0  01:12      0.82    0.53    1.00
  YS02001610YS02001613 CONDUIT    558.44     0  01:13      0.76    0.64    1.00
  YS02001613YS02001616 CONDUIT    569.53     0  01:13      0.82    0.49    1.00
  YS02001616YS02001619 CONDUIT    532.29     0  01:13      0.85    0.92    1.00
  YS02001619YS02001622 CONDUIT    959.99     0  01:13      1.79    1.41    1.00
  YS02001622YS02001625 CONDUIT    936.62     0  01:13      1.19    0.50    1.00
  YS02001625YS02001629 CONDUIT    937.64     0  01:13      1.20    0.45    1.00
  YS02001629YS02163301 CONDUIT    914.67     0  01:17      1.16    1.13    1.00
  YS02001633YS02163601 CONDUIT   1327.39     0  01:18      1.69    1.39    1.00
  YS02001641YS02001644 CONDUIT   1328.45     0  01:18      1.69    4.29    1.00
  YS02001644YS02001647 CONDUIT   1681.96     0  01:18      2.19    0.99    1.00
  YS02001647YS02001649 CONDUIT   1696.92     0  01:18      2.34    0.90    1.00
  YS02001649YS02001757 CONDUIT   2080.42     0  01:38      2.65    1.26    1.00
  YS02001652YS02001649 CONDUIT    516.66     0  01:35      1.35    0.26    1.00
  YS02001655YS02001652 CONDUIT    614.87     0  01:37      1.79    0.30    1.00
  YS02001658YS02001655 CONDUIT    738.91     0  01:30      1.95    0.31    0.82
  YS02001661YS02001658 CONDUIT    391.89     0  02:28      2.19    0.15    0.47
  YS02001664YS02001661 CONDUIT    374.02     0  01:31      2.08    0.12    0.29
  YS02001745YS02001748 CONDUIT    212.34     0  01:29      1.98    0.08    0.33
  YS02001748YS02001751 CONDUIT    432.30     0  01:53      1.65    0.22    0.68
  YS02001751YS02001754 CONDUIT    667.36     0  01:54      1.62    0.32    0.89
  YS02001754YS02001757 CONDUIT    463.94     0  01:52      0.90    0.19    1.00
  YS02001757CaochengTiaoxuchi CONDUIT   2948.11     0  01:29      6.38    1.28    1.00
  YS02001759YS02001757 CONDUIT    783.64     0  01:28      1.21    0.56    1.00
  YS02001762YS02001759 CONDUIT    501.75     0  01:44      0.70    0.58    1.00
  YS02001765YS02001762 CONDUIT    509.16     0  01:44      0.82    0.48    1.00
  YS02001767YS02001765 CONDUIT    491.70     0  01:40      0.93    0.62    1.00
  YS02001770YS02001767 CONDUIT    485.07     0  01:28      0.92    1.92    1.00
  YS02001774YS02001770 CONDUIT    132.21     0  01:19      0.72    0.08    1.00
  YS02001779YS02001774 CONDUIT    103.78     0  01:42      0.20    0.05    1.00
  YS02001783YS02001784 CONDUIT   1142.75     0  01:30      2.27    1.58    1.00
  YS02001784YS02001785 CONDUIT   1143.49     0  01:30      2.27    2.66    1.00
  YS02001786YS02001788 CONDUIT   1143.60     0  01:30      2.45    2.20    0.88
  YS02001788YS02001790 CONDUIT   1157.21     0  01:21      2.71    0.85    0.83
  YS02001790YS02001791 CONDUIT   1266.90     0  01:32      3.41    1.38    0.70
  YS02001791YS02001793 CONDUIT   1226.34     0  01:39      6.44    0.53    0.42
  YS02001793JiankangQianchi CONDUIT   1310.74     0  01:30     24.30    0.10    0.50
  YS02001882YS02001884 CONDUIT     68.77     0  01:11      0.41    0.08    1.00
  YS02001884YS02001887 CONDUIT    124.69     0  01:11      0.36    0.17    1.00
  YS02001887YS02001890 CONDUIT    323.52     0  01:16      0.43    0.55    1.00
  YS02001890YS02001895 CONDUIT    326.02     0  01:16      0.46    0.15    1.00
  YS02001895YS02001898 CONDUIT    334.37     0  01:16      0.70    0.58    1.00
  YS02001898YS02001901 CONDUIT    347.64     0  01:16      0.58    0.22    1.00
  YS02001901YS02001904 CONDUIT    345.73     0  01:16      0.64    0.54    1.00
  YS02001904YS02001907 CONDUIT    340.62     0  01:16      0.43    0.12    1.00
  YS02001907YS02006553 CONDUIT    774.73     0  01:45      0.86    0.91    1.00
  YS02001910YS02001907 CONDUIT    688.37     0  01:22      0.88    0.39    1.00
  YS02001915YS02001910 CONDUIT    688.12     0  01:22      1.14    0.34    1.00
  YS02001918YS02001915 CONDUIT    311.31     0  01:22      0.44    0.17    1.00
  YS02001920YS02001918 CONDUIT    310.42     0  01:22      0.72    0.30    1.00
  YS02001923YS02001920 CONDUIT    307.16     0  01:22      0.83    0.14    1.00
  YS02001926YS02001923 CONDUIT    368.26     0  01:22      0.94    0.53    0.95
  YS02001929YS02001926 CONDUIT    290.56     0  01:21      1.05    0.14    0.84
  YS02006553YS02006556 CONDUIT    774.76     0  01:51      0.99    0.66    1.00
  YS02006556YS02006558 CONDUIT    774.81     0  01:48      0.99    0.61    1.00
  YS02006558YS02006561 CONDUIT   1142.60     0  01:30      4.04    2.53    1.00
  YS02006561YS02001783 CONDUIT   1142.50     0  01:30      2.27    0.59    1.00
  YS02163301YS02001633 CONDUIT    914.43     0  01:17      1.16    0.86    1.00
  YS02163601YS02164001 CONDUIT   1327.72     0  01:18      1.69    1.18    1.00
  YS02164001YS02001641 CONDUIT   1327.61     0  01:18      1.69    1.81    1.00
  YSB1154YSB6556       CONDUIT    196.18     0  01:30      0.51    0.35    1.00
  YSB1171HS02004479    CONDUIT    344.96     0  01:30      0.69    0.23    1.00
  YSB1174YSB1171       CONDUIT    148.33     0  01:29      0.39    0.23    1.00
  YSB6556YSB1171       CONDUIT    196.38     0  01:30      0.51    0.20    1.00
  CC-R1                PUMP       683.00     0  00:00              1.00
  CC-R2                PUMP       683.00     0  00:00              1.00
  CC-S1                PUMP       200.00     0  00:00              1.00
  CC-S2                PUMP       200.00     0  00:00              1.00
  JK-R1                PUMP      1000.00     0  00:00              1.00
  JK-R2                PUMP      1000.00     0  00:00              1.00
  JK-S                 PUMP       300.00     0  00:00              1.00
  XR-1                 PUMP        95.00     0  00:00              1.00
  XR-2                 PUMP        95.00     0  00:00              1.00
  XR-3                 PUMP        95.00     0  00:00              1.00
  XR-4                 PUMP        95.00     0  00:00              1.00
  
  
  ***************************
  Flow Classification Summary
  ***************************
  
  -------------------------------------------------------------------------------------
                      Adjusted    ---------- Fraction of Time in Flow Class ---------- 
                       /Actual         Up    Down  Sub   Sup   Up    Down  Norm  Inlet 
  Conduit               Length    Dry  Dry   Dry   Crit  Crit  Crit  Crit  Ltd   Ctrl  
  -------------------------------------------------------------------------------------
  1                       1.00   0.00  0.00  0.00  0.00  1.00  0.00  0.00  0.52  0.00
  HS02004478WS02006287    1.00   0.12  0.00  0.00  0.75  0.13  0.00  0.00  0.56  0.00
  HS02004479HS02004480    1.00   0.05  0.00  0.00  0.95  0.00  0.00  0.00  0.09  0.00
  HS02004480HS02004478    1.00   0.12  0.00  0.00  0.71  0.00  0.00  0.17  0.00  0.00
  HS02004770HS02004777    1.00   0.00  0.12  0.00  0.88  0.00  0.00  0.00  0.00  0.00
  HS02004777HS02004785    1.00   0.00  0.00  0.00  1.00  0.00  0.00  0.00  0.09  0.00
  HS02004785HS02004788    1.00   0.00  0.00  0.00  1.00  0.00  0.00  0.00  0.00  0.00
  HS02004788HS02004792    1.00   0.00  0.00  0.00  0.99  0.01  0.00  0.00  0.75  0.00
  HS02004792HS02004799    1.00   0.00  0.00  0.00  0.99  0.01  0.00  0.00  0.74  0.00
  HS02004799HS02004480    1.00   0.00  0.05  0.00  0.88  0.00  0.07  0.00  0.00  0.00
  HS02004802HS02004478    1.00   0.12  0.00  0.00  0.88  0.00  0.00  0.00  0.01  0.00
  HS02004807HS02004802    1.00   0.12  0.00  0.00  0.88  0.00  0.00  0.00  0.00  0.00
  HS02004817HS02004807    1.00   0.00  0.12  0.00  0.88  0.00  0.00  0.00  0.01  0.00
  HS02004817HS02004824    1.00   0.00  0.00  0.00  1.00  0.00  0.00  0.00  0.73  0.00
  HS02004824HS02004830    1.00   0.00  0.00  0.00  1.00  0.00  0.00  0.00  0.00  0.00
  HS02004830HS02004837    1.00   0.00  0.00  0.00  1.00  0.00  0.00  0.00  0.74  0.00
  HS02004837HS02004842    1.00   0.00  0.00  0.00  1.00  0.00  0.00  0.00  0.11  0.00
  HS02004842HS02004848    1.00   0.00  0.12  0.00  0.88  0.00  0.00  0.00  0.52  0.00
  HS02004848HS02004852    1.00   0.12  0.00  0.00  0.88  0.00  0.00  0.00  0.62  0.00
  HS02004852HS02004856    1.00   0.12  0.00  0.00  0.88  0.00  0.00  0.00  0.61  0.00
  HS02004856HS02004862    1.00   0.00  0.12  0.00  0.88  0.00  0.00  0.00  0.63  0.00
  HS02004862HS02004870    1.00   0.00  0.00  0.00  1.00  0.00  0.00  0.00  0.01  0.00
  HS02004870HS02004876    1.00   0.00  0.00  0.00  0.97  0.02  0.00  0.00  0.71  0.00
  HS02004876HS02004881    1.00   0.02  0.00  0.00  0.90  0.09  0.00  0.00  0.00  0.00
  HS02004881HS02006253    1.00   0.00  0.07  0.00  0.57  0.02  0.00  0.34  0.13  0.00
  HS02004901HS02004770    1.00   0.12  0.00  0.00  0.88  0.00  0.00  0.00  0.00  0.00
  WS02001211WS02001212    1.00   0.00  0.02  0.00  0.98  0.00  0.00  0.00  0.00  0.00
  WS02001212WS02001213    1.00   0.03  0.00  0.00  0.61  0.00  0.36  0.00  0.00  0.00
  WS02001213WS02003059    1.00   0.00  0.00  0.00  0.99  0.00  0.00  0.00  0.00  0.00
  WS02003059WS02003060    1.00   0.00  0.00  0.00  1.00  0.00  0.00  0.00  0.03  0.00
  WS02003060WS02003069    1.00   0.00  0.00  0.00  0.97  0.03  0.00  0.00  0.54  0.00
  WS02003066WSF200        1.00   0.07  0.00  0.00  0.00  0.93  0.00  0.00  0.59  0.00
  WS02003067WS02003066    1.00   0.06  0.00  0.00  0.93  0.00  0.00  0.00  0.00  0.00
  WS02003069WS02003072    1.00   0.00  0.00  0.00  1.00  0.00  0.00  0.00  0.56  0.00
  WS02003072WS02003073    1.00   0.00  0.00  0.00  0.00  0.00  0.00  1.00  0.00  0.00
  WS02004138WS02004139    1.00   0.00  0.01  0.00  0.97  0.01  0.00  0.01  0.98  0.00
  WS02004139WS02001211    1.00   0.00  0.00  0.00  0.99  0.00  0.00  0.00  0.00  0.00
  WS02004401WS02004402    1.00   0.02  0.00  0.00  0.97  0.00  0.00  0.00  0.00  0.00
  WS02004402WS02004403    1.00   0.03  0.00  0.00  0.97  0.00  0.00  0.00  0.00  0.00
  WS02004403WS02004404    1.00   0.00  0.03  0.00  0.97  0.00  0.00  0.00  0.00  0.00
  WS02004404WS02004405    1.00   0.00  0.00  0.00  1.00  0.00  0.00  0.00  0.00  0.00
  WS02004405WS02004406    1.00   0.00  0.00  0.00  1.00  0.00  0.00  0.00  0.00  0.00
  WS02004406WS02004407    1.00   0.00  0.05  0.00  0.95  0.00  0.00  0.00  0.00  0.00
  WS02004407WS02004409    1.00   0.05  0.00  0.00  0.93  0.02  0.00  0.00  0.72  0.00
  WS02004409WS02004410    1.00   0.05  0.00  0.00  0.95  0.00  0.00  0.00  0.00  0.00
  WS02004410WS02004411    1.00   0.05  0.00  0.00  0.95  0.00  0.00  0.00  0.00  0.00
  WS02004411WS02004412    1.00   0.05  0.00  0.00  0.95  0.00  0.00  0.00  0.00  0.00
  WS02004412WS02004413    1.00   0.05  0.00  0.00  0.94  0.00  0.00  0.00  0.00  0.00
  WS02004413WS02003067    1.00   0.06  0.01  0.00  0.00  0.00  0.94  0.00  0.00  0.00
  WS02006109WS02006110    1.00   0.00  0.01  0.00  0.99  0.00  0.01  0.00  0.00  0.00
  WS02006110WS02006113    1.00   0.01  0.01  0.00  0.99  0.00  0.00  0.00  0.00  0.00
  WS02006111WS02006112    1.00   0.02  0.00  0.00  0.98  0.00  0.00  0.00  0.68  0.00
  WS02006112WS02006115    1.00   0.02  0.00  0.00  0.97  0.00  0.01  0.00  0.00  0.00
  WS02006113WS02006111    1.00   0.02  0.00  0.00  0.47  0.52  0.00  0.00  0.07  0.00
  WS02006115WS02006116    1.00   0.02  0.00  0.00  0.97  0.00  0.00  0.01  0.00  0.00
  WS02006116WS02004401    1.00   0.02  0.00  0.00  0.98  0.00  0.00  0.00  0.00  0.00
  WS02006228WS02006109    1.00   0.00  0.00  0.00  1.00  0.00  0.00  0.00  0.00  0.00
  WS02006229WS02006228    1.00   0.00  0.00  0.00  0.99  0.00  0.00  0.01  0.00  0.00
  WS02006230WS02006229    1.00   0.00  0.00  0.00  0.99  0.00  0.00  0.01  0.03  0.00
  WS02006231WS02006230    1.00   0.00  0.00  0.00  0.65  0.00  0.35  0.00  0.00  0.00
  WS02006232WS02006231    1.00   0.00  0.00  0.00  1.00  0.00  0.00  0.00  0.00  0.00
[...]
  WS02006252WS02006251    1.00   0.00  0.00  0.00  0.57  0.00  0.43  0.00  0.00  0.00
  WS02006253WS02006251    1.00   0.00  0.00  0.00  0.98  0.00  0.02  0.00  0.00  0.00
  WS02006256WS02006235    1.00   0.00  0.00  0.00  0.99  0.01  0.00  0.00  0.01  0.00
  WS02006280WS02006229    1.00   0.12  0.00  0.00  0.43  0.03  0.00  0.42  0.01  0.00
  WS02006284WS02006280    1.00   0.12  0.00  0.00  0.42  0.00  0.00  0.45  0.00  0.00
  WS02006287WS02006284    1.00   0.11  0.01  0.00  0.67  0.20  0.00  0.01  0.62  0.00
  WSF200WS02003060        1.00   0.00  0.07  0.00  0.33  0.60  0.00  0.00  0.55  0.00
  YS02001580YS02001583    1.00   0.14  0.31  0.00  0.55  0.00  0.00  0.00  0.62  0.00
  YS02001583YS02001586    1.00   0.29  0.11  0.00  0.60  0.00  0.00  0.00  0.62  0.00
  YS02001586YS02001590    1.00   0.12  0.00  0.00  0.65  0.02  0.00  0.21  0.23  0.00
  YS02001590YS02001593    1.00   0.12  0.00  0.00  0.43  0.00  0.45  0.00  0.00  0.00
  YS02001593YS02001596    1.00   0.12  0.00  0.00  0.44  0.01  0.00  0.43  0.01  0.00
  YS02001596YS02001600    1.00   0.12  0.00  0.00  0.48  0.01  0.00  0.40  0.02  0.00
  YS02001600YS02001601    1.00   0.12  0.00  0.00  0.88  0.00  0.00  0.00  0.56  0.00
  YS02001601YS02001602    1.00   0.12  0.00  0.00  0.88  0.00  0.00  0.00  0.00  0.00
  YS02001602YS02001605    1.00   0.12  0.00  0.00  0.88  0.00  0.00  0.00  0.00  0.00
  YS02001605YS02001607    1.00   0.12  0.00  0.00  0.88  0.00  0.00  0.00  0.00  0.00
  YS02001607YS02001610    1.00   0.12  0.00  0.00  0.88  0.00  0.00  0.00  0.00  0.00
  YS02001610YS02001613    1.00   0.12  0.00  0.00  0.88  0.00  0.00  0.00  0.00  0.00
  YS02001613YS02001616    1.00   0.12  0.00  0.00  0.88  0.00  0.00  0.00  0.00  0.00
  YS02001616YS02001619    1.00   0.12  0.00  0.00  0.88  0.00  0.00  0.00  0.00  0.00
  YS02001619YS02001622    1.00   0.12  0.00  0.00  0.88  0.01  0.00  0.00  0.32  0.00
  YS02001622YS02001625    1.00   0.12  0.00  0.00  0.88  0.00  0.00  0.00  0.01  0.00
  YS02001625YS02001629    1.00   0.12  0.01  0.00  0.45  0.00  0.42  0.00  0.00  0.00
  YS02001629YS02163301    1.00   0.12  0.00  0.00  0.88  0.00  0.00  0.00  0.00  0.00
  YS02001633YS02163601    1.00   0.00  0.00  0.00  1.00  0.00  0.00  0.00  0.12  0.00
  YS02001641YS02001644    1.00   0.00  0.00  0.00  1.00  0.00  0.00  0.00  0.00  0.00
  YS02001644YS02001647    1.00   0.00  0.12  0.00  0.88  0.00  0.00  0.00  0.00  0.00
  YS02001647YS02001649    1.00   0.00  0.12  0.00  0.69  0.19  0.00  0.00  0.56  0.00
  YS02001649YS02001757    1.00   0.00  0.00  0.00  0.83  0.17  0.00  0.00  0.43  0.00
  YS02001652YS02001649    1.00   0.00  0.00  0.00  0.99  0.01  0.00  0.00  0.69  0.00
  YS02001655YS02001652    1.00   0.00  0.00  0.00  0.48  0.01  0.00  0.52  0.03  0.00
  YS02001658YS02001655    1.00   0.00  0.12  0.00  0.76  0.12  0.00  0.00  0.62  0.00
  YS02001661YS02001658    1.00   0.12  0.00  0.00  0.59  0.29  0.00  0.00  0.72  0.00
  YS02001664YS02001661    1.00   0.12  0.00  0.00  0.45  0.44  0.00  0.00  0.87  0.00
  YS02001745YS02001748    1.00   0.00  0.00  0.00  0.30  0.08  0.00  0.61  0.21  0.00
  YS02001748YS02001751    1.00   0.00  0.00  0.00  0.92  0.08  0.00  0.00  0.74  0.00
  YS02001751YS02001754    1.00   0.00  0.00  0.00  0.47  0.00  0.00  0.53  0.02  0.00
  YS02001754YS02001757    1.00   0.00  0.00  0.00  1.00  0.00  0.00  0.00  0.72  0.00
  YS02001757CaochengTiaoxuchi    1.00   0.00  0.00  0.00  0.66  0.34  0.00  0.00  0.47  0.00
  YS02001759YS02001757    1.00   0.00  0.00  0.00  1.00  0.00  0.00  0.00  0.64  0.00
  YS02001762YS02001759    1.00   0.00  0.00  0.00  1.00  0.00  0.00  0.00  0.02  0.00
  YS02001765YS02001762    1.00   0.00  0.00  0.00  1.00  0.00  0.00  0.00  0.68  0.00
  YS02001767YS02001765    1.00   0.00  0.00  0.00  1.00  0.00  0.00  0.00  0.00  0.00
  YS02001770YS02001767    1.00   0.00  0.00  0.00  1.00  0.00  0.00  0.00  0.00  0.00
  YS02001774YS02001770    1.00   0.00  0.12  0.00  0.75  0.00  0.13  0.00  0.00  0.00
  YS02001779YS02001774    1.00   0.00  0.00  0.00  1.00  0.00  0.00  0.00  0.70  0.00
  YS02001783YS02001784    1.00   0.00  0.12  0.00  0.88  0.00  0.00  0.00  0.55  0.00
  YS02001784YS02001785    1.00   0.00  0.00  0.00  1.00  0.00  0.00  0.00  0.12  0.00
  YS02001786YS02001788    1.00   0.00  0.00  0.00  0.74  0.26  0.00  0.00  0.00  0.00
  YS02001788YS02001790    1.00   0.00  0.00  0.00  0.24  0.76  0.00  0.00  0.74  0.00
  YS02001790YS02001791    1.00   0.00  0.00  0.00  0.01  0.99  0.00  0.00  0.11  0.00
  YS02001791YS02001793    1.00   0.00  0.00  0.00  0.00  1.00  0.00  0.00  0.02  0.00
  YS02001793JiankangQianchi    1.00   0.00  0.00  0.00  0.12  0.88  0.00  0.00  0.57  0.00
  YS02001882YS02001884    1.00   0.12  0.00  0.00  0.88  0.00  0.00  0.00  0.00  0.00
  YS02001884YS02001887    1.00   0.08  0.03  0.00  0.89  0.00  0.00  0.00  0.00  0.00
  YS02001887YS02001890    1.00   0.00  0.00  0.00  0.96  0.00  0.04  0.00  0.00  0.00
  YS02001890YS02001895    1.00   0.00  0.12  0.00  0.88  0.00  0.00  0.00  0.00  0.00
  YS02001895YS02001898    1.00   0.12  0.00  0.00  0.87  0.00  0.00  0.00  0.00  0.00
  YS02001898YS02001901    1.00   0.12  0.00  0.00  0.88  0.00  0.00  0.00  0.00  0.00
  YS02001901YS02001904    1.00   0.12  0.00  0.00  0.88  0.00  0.00  0.00  0.00  0.00
  YS02001904YS02001907    1.00   0.00  0.12  0.00  0.88  0.00  0.00  0.00  0.00  0.00
  YS02001907YS02006553    1.00   0.00  0.02  0.00  0.98  0.00  0.00  0.00  0.00  0.00
  YS02001910YS02001907    1.00   0.00  0.00  0.00  0.97  0.01  0.00  0.03  0.10  0.00
  YS02001915YS02001910    1.00   0.00  0.00  0.00  0.98  0.02  0.00  0.00  0.11  0.00
  YS02001918YS02001915    1.00   0.00  0.00  0.00  0.97  0.02  0.00  0.00  0.64  0.00
  YS02001920YS02001918    1.00   0.00  0.00  0.00  1.00  0.00  0.00  0.00  0.00  0.00
  YS02001923YS02001920    1.00   0.00  0.00  0.00  1.00  0.00  0.00  0.00  0.82  0.00
  YS02001926YS02001923    1.00   0.00  0.09  0.00  0.26  0.00  0.65  0.00  0.00  0.00
  YS02001929YS02001926    1.00   0.00  0.12  0.00  0.88  0.00  0.00  0.00  0.75  0.00
  YS02006553YS02006556    1.00   0.01  0.00  0.00  0.99  0.00  0.00  0.00  0.03  0.00
  YS02006556YS02006558    1.00   0.00  0.00  0.00  1.00  0.00  0.00  0.00  0.00  0.00
  YS02006558YS02006561    1.00   0.12  0.00  0.00  0.23  0.65  0.00  0.00  0.10  0.00
  YS02006561YS02001783    1.00   0.12  0.00  0.00  0.36  0.52  0.00  0.00  0.61  0.00
  YS02163301YS02001633    1.00   0.00  0.12  0.00  0.88  0.00  0.00  0.00  0.00  0.00
  YS02163601YS02164001    1.00   0.00  0.09  0.00  0.91  0.00  0.00  0.00  0.00  0.00
  YS02164001YS02001641    1.00   0.01  0.09  0.00  0.90  0.00  0.00  0.00  0.05  0.00
  YSB1154YSB6556          1.00   0.12  0.00  0.00  0.88  0.00  0.00  0.00  0.00  0.00
  YSB1171HS02004479       1.00   0.05  0.00  0.00  0.93  0.00  0.00  0.02  0.08  0.00
  YSB1174YSB1171          1.00   0.07  0.03  0.00  0.90  0.00  0.00  0.00  0.00  0.00
  YSB6556YSB1171          1.00   0.06  0.06  0.00  0.88  0.00  0.00  0.00  0.00  0.00
  
  
  *************************
  Conduit Surcharge Summary
  *************************
  
  ----------------------------------------------------------------------------
                                                           Hours        Hours 
                         --------- Hours Full --------   Above Full   Capacity
  Conduit                Both Ends  Upstream  Dnstream   Normal Flow   Limited
  ----------------------------------------------------------------------------
  HS02004478WS02006287        1.45      1.45      1.81      0.01         0.01
  HS02004479HS02004480        1.86      1.86      1.87      0.01         0.01
  HS02004480HS02004478        1.75      1.85      1.75      2.23         1.75
  HS02004770HS02004777        1.75      1.75      1.75      0.30         0.26
  HS02004777HS02004785        1.66      1.66      1.75      0.01         0.01
  HS02004785HS02004788        1.58      1.66      1.58      2.09         1.58
  HS02004788HS02004792        1.58      1.58      1.82      0.01         0.01
  HS02004792HS02004799        1.82      1.82      1.90      0.01         0.01
  HS02004799HS02004480        1.85      1.85      1.90      1.94         0.01
  HS02004802HS02004478        1.76      1.76      1.85      0.01         0.01
  HS02004807HS02004802        1.80      1.80      1.83      0.01         0.02
  HS02004817HS02004807        1.80      1.80      2.04      0.01         0.01
  HS02004817HS02004824        1.50      1.50      2.04      0.01         0.01
  HS02004824HS02004830        1.41      1.41      1.50      0.01         0.01
  HS02004830HS02004837        1.32      1.32      1.41      0.01         0.01
  HS02004837HS02004842        1.32      1.32      1.73      0.01         0.01
  HS02004842HS02004848        1.27      1.27      1.73      0.01         0.01
  HS02004848HS02004852        1.27      1.27      1.31      0.01         0.01
  HS02004852HS02004856        1.31      1.31      1.35      0.01         0.01
  HS02004856HS02004862        1.30      1.30      1.37      0.01         0.01
  HS02004862HS02004870        1.37      1.37      1.44      0.01         0.02
  HS02004870HS02004876        1.44      1.44      1.69      0.01         0.01
  HS02004876HS02004881        1.64      1.69      1.64      2.13         1.64
  HS02004881HS02006253        1.64      1.64      2.79      0.01         0.01
  HS02004901HS02004770        1.75      1.75      1.76      0.55         0.03
  WS02003072WS02003073        0.01      0.01      0.01      3.14         0.01
  WS02004401WS02004402        2.21      2.21      2.24      2.08         2.03
  WS02004402WS02004403        2.24      2.24      2.25      2.22         2.19
  WS02004403WS02004404        2.25      2.25      2.41      0.01         0.03
  WS02004404WS02004405        2.38      2.41      2.38      3.69         2.38
  WS02004405WS02004406        2.35      2.38      2.35      2.79         2.34
  WS02004406WS02004407        0.01      0.01      2.35      0.01         0.01
  WS02004407WS02004409        0.01      0.01      1.90      0.01         0.01
  WS02004409WS02004410        1.88      1.90      1.88      2.12         1.88
  WS02004410WS02004411        1.87      1.88      1.87      2.17         1.87
  WS02004411WS02004412        1.83      1.87      1.83      2.20         1.83
  WS02004412WS02004413        1.83      1.83      2.01      0.01         0.01
  WS02004413WS02003067        0.01      0.01      2.01      0.01         0.01
  WS02006109WS02006110        2.69      2.69      3.08      2.71         0.01
  WS02006110WS02006113        2.00      2.00      3.04      0.85         0.01
  WS02006111WS02006112        1.97      1.97      3.16      0.01         0.01
  WS02006112WS02006115        2.12      2.12      2.86      0.01         0.01
  WS02006113WS02006111        1.98      2.00      1.98      2.08         1.98
  WS02006115WS02006116        2.13      2.13      2.14      2.14         2.10
  WS02006116WS02004401        2.20      2.20      2.21      2.20         2.17
  WS02006228WS02006109        2.99      3.08      2.99      3.35         2.99
  WS02006229WS02006228        2.97      3.03      2.97      3.24         2.97
  WS02006230WS02006229        3.15      3.19      3.16      3.74         1.14
  WS02006231WS02006230        2.46      2.46      2.75      3.54         1.99
  WS02006232WS02006231        2.71      2.72      3.04      0.03         0.39
  WS02006234WS02006232        2.84      2.84      3.04      0.02         0.04
  WS02006235WS02006234        2.81      2.82      2.92      3.39         1.94
  WS02006238WS02006235        2.94      2.95      3.03      0.02         0.40
  WS02006239WS02006238        2.97      3.01      2.97      2.95         0.87
  WS02006240WS02006239        2.92      2.94      2.92      2.93         0.81
  WS02006242WS02006240        2.92      2.92      3.07      3.05         1.76
  WS02006243WS02006242        2.95      2.95      3.04      0.01         0.01
  WS02006245WS02006243        2.93      2.94      2.93      1.00         0.81
  WS02006247WS02006245        2.93      2.97      2.93      3.23         0.95
  WS02006248WS02006247        2.93      2.93      2.96      0.01         0.06
  WS02006249WS02006248        2.91      2.91      2.94      1.24         0.01
  WS02006251WS02006249        2.94      2.95      2.94      3.15         2.93
  WS02006252WS02006251        3.14      3.14      3.14      2.15         0.01
  WS02006253WS02006251        2.94      2.94      2.98      1.92         0.01
  WS02006256WS02006235        3.44      3.47      6.23      0.09         0.18
  WS02006280WS02006229        1.88      1.88      1.91      0.01         0.01
  WS02006284WS02006280        1.83      1.83      1.87      0.01         0.01
  WS02006287WS02006284        1.74      1.74      1.84      0.18         0.22
  YS02001580YS02001583        1.67      1.67      1.74      0.01         0.01
  YS02001583YS02001586        1.69      1.69      1.83      0.01         0.01
  YS02001586YS02001590        1.84      1.84      1.88      0.01         0.01
  YS02001590YS02001593        1.88      1.88      1.89      1.88         0.01
  YS02001593YS02001596        1.89      1.89      1.94      0.01         0.01
  YS02001596YS02001600        1.96      1.96      1.99      0.01         0.01
  YS02001600YS02001601        2.02      2.02      2.14      0.01         0.01
  YS02001601YS02001602        2.09      2.09      2.16      2.01         0.01
  YS02001602YS02001605        2.07      2.07      2.09      2.60         0.01
  YS02001605YS02001607        2.05      2.07      2.05      2.10         2.04
  YS02001607YS02001610        1.83      1.83      1.85      0.01         0.01
  YS02001610YS02001613        1.83      1.83      1.85      0.01         0.01
  YS02001613YS02001616        1.81      1.81      1.83      0.01         0.01
  YS02001616YS02001619        1.80      1.80      1.81      0.01         0.01
  YS02001619YS02001622        1.80      1.80      1.80      1.88         1.70
  YS02001622YS02001625        1.80      1.80      1.91      0.01         0.01
  YS02001625YS02001629        1.77      1.77      1.91      0.01         0.01
  YS02001629YS02163301        1.90      1.90      1.91      0.81         0.93
  YS02001633YS02163601        1.92      1.92      1.93      1.78         1.74
  YS02001641YS02001644        1.87      1.88      1.87      2.17         1.86
  YS02001644YS02001647        1.67      1.67      1.87      0.01         0.01
  YS02001647YS02001649        1.67      1.67      1.76      0.01         0.01
  YS02001649YS02001757        1.74      1.76      1.78      1.11         0.91
  YS02001652YS02001649        1.36      1.36      1.76      0.01         0.01
  YS02001655YS02001652        0.05      0.05      1.06      0.01         0.01
  YS02001658YS02001655        0.01      0.01      0.05      0.01         0.01
  YS02001751YS02001754        0.01      0.01      0.03      0.01         0.01
  YS02001754YS02001757        0.33      0.33      1.78      0.01         0.01
  YS02001757CaochengTiaoxuchi        1.14      1.78      1.55      1.06         0.36
  YS02001759YS02001757        1.67      1.67      1.78      0.01         0.01
  YS02001762YS02001759        1.60      1.60      1.67      0.01         0.02
  YS02001765YS02001762        1.40      1.40      1.60      0.01         0.01
  YS02001767YS02001765        1.24      1.25      1.40      0.01         0.01
  YS02001770YS02001767        1.25      1.36      1.25      1.38         0.75
  YS02001774YS02001770        1.21      1.21      1.68      0.01         0.01
  YS02001779YS02001774        0.02      0.02      1.68      0.01         0.01
  YS02001783YS02001784        1.24      1.29      1.24      1.59         1.24
  YS02001784YS02001785        0.91      1.24      0.91      1.90         0.91
  YS02001786YS02001788        0.01      0.91      0.01      1.83         0.01
  YS02001790YS02001791        0.01      0.01      0.01      1.18         0.01
  YS02001882YS02001884        1.07      1.07      1.13      0.01         0.01
  YS02001884YS02001887        1.24      1.24      1.27      0.01         0.01
  YS02001887YS02001890        1.30      1.30      1.32      0.01         0.01
  YS02001890YS02001895        1.04      1.04      1.34      0.01         0.01
  YS02001895YS02001898        1.03      1.03      1.04      0.01         0.01
  YS02001898YS02001901        1.05      1.05      1.24      0.01         0.01
  YS02001901YS02001904        1.22      1.22      1.24      0.01         0.01
  YS02001904YS02001907        1.22      1.22      1.81      0.01         0.01
  YS02001907YS02006553        1.90      1.90      1.93      0.01         0.01
  YS02001910YS02001907        1.35      1.35      1.79      0.01         0.01
  YS02001915YS02001910        1.07      1.07      1.35      0.01         0.01
  YS02001918YS02001915        0.88      0.88      1.07      0.01         0.01
  YS02001920YS02001918        0.88      0.88      0.91      0.01         0.01
  YS02001923YS02001920        0.78      0.78      0.91      0.01         0.01
  YS02001926YS02001923        0.01      0.01      0.01      0.01         0.01
  YS02001929YS02001926        0.01      0.01      0.01      0.01         0.01
  YS02006553YS02006556        1.52      1.52      1.81      0.01         0.01
  YS02006556YS02006558        1.69      1.69      1.83      0.01         0.01
  YS02006558YS02006561        0.94      1.49      0.94      1.88         0.94
  YS02006561YS02001783        0.83      0.83      1.29      0.01         0.01
  YS02163301YS02001633        1.91      1.91      1.93      0.01         0.01
  YS02163601YS02164001        1.89      1.89      1.93      1.05         0.01
  YS02164001YS02001641        1.88      1.89      1.88      1.93         1.86
  YSB1154YSB6556              1.89      1.89      1.94      0.01         0.01
  YSB1171HS02004479           1.80      1.80      1.94      0.01         0.01
  YSB1174YSB1171              1.92      1.92      2.01      0.01         0.01
  YSB6556YSB1171              1.89      1.89      2.06      0.01         0.01
  
  
  ***************
  Pumping Summary
  ***************
  
  ---------------------------------------------------------------------------------------------------------
                                                  Min       Avg       Max     Total     Power    % Time Off
                        Percent   Number of      Flow      Flow      Flow    Volume     Usage    Pump Curve
  Pump                 Utilized   Start-Ups       LPS       LPS       LPS  10^6 ltr     Kw-hr    Low   High
  ---------------------------------------------------------------------------------------------------------
  CC-R1                   39.31           2      0.00    683.00    683.00     7.733    135.40    0.0   50.7
  CC-R2                   39.31           2      0.00    683.00    683.00     7.733    135.40    0.0   50.7
  CC-S1                   39.31           2      0.00    200.00    200.00     2.264     18.18    0.0   15.4
  CC-S2                   39.31           2      0.00    200.00    200.00     2.264     18.18    0.0   15.4
  JK-R1                   11.93         547      0.00    996.52   1000.00     3.407      8.22    0.0    0.0
  JK-R2                   11.93         547      0.00    996.52   1000.00     3.407      8.22    0.0    0.0
  JK-S                    11.93         547      0.00    299.93    300.00     1.030     23.55    0.0    0.0
  XR-1                    97.91           2      0.00     95.00     95.00     2.679      9.63    0.0    0.0
  XR-2                    93.94           2      0.00     95.00     95.00     2.570      8.78    0.0    0.0
  XR-3                     0.00           1      0.00     95.00     95.00     0.000      0.00    0.0    0.0
  XR-4                     0.00           1      0.00     95.00     95.00     0.000      0.00    0.0    0.0
  

  Analysis begun on:  Mon Jul 24 17:14:57 2023
  Analysis ended on:  Mon Jul 24 17:15:18 2023
  Total elapsed time: 00:00:21