
  OWA STORM WATER MANAGEMENT MODEL - VERSION v5.1.14 (OWA 2022-07-31)
  --------------------------------------------------------------

  WARNING 04: minimum elevation drop used for Conduit WS02004404WS02004405
  WARNING 03: negative offset ignored for Link YS02001904YS02001907
  
  *********************************************************
  NOTE: The summary statistics displayed in this report are
  based on results found at every computational time step,  
  not just on results from each reporting time step.
  *********************************************************
  
  ****************
  Analysis Options
  ****************
  Flow Units ............... LPS
  Process Models:
    Rainfall/Runoff ........ YES
    RDII ................... NO
    Snowmelt ............... NO
    Groundwater ............ NO
    Flow Routing ........... YES
    Ponding Allowed ........ NO
    Water Quality .......... NO
  Infiltration Method ...... HORTON
  Flow Routing Method ...... DYNWAVE
  Surcharge Method ......... EXTRAN
  Starting Date ............ 08/28/2015 08:00:00
  Ending Date .............. 08/28/2015 16:00:00
  Antecedent Dry Days ...... 8.0
  Report Time Step ......... 00:01:00
  Wet Time Step ............ 00:01:00
  Dry Time Step ............ 00:01:00
  Routing Time Step ........ 30.00 sec
  Variable Time Step ....... YES
  Maximum Trials ........... 8
  Number of Threads ........ 4
  Head Tolerance ........... 0.001500 m
  
  
  **************************        Volume         Depth
  Runoff Quantity Continuity     hectare-m            mm
  **************************     ---------       -------
  Initial LID Storage ......         0.072         1.184
  Total Precipitation ......         6.438       106.270
  Evaporation Loss .........         0.000         0.000
  Infiltration Loss ........         0.221         3.640
  Surface Runoff ...........         5.087        83.975
  Final Storage ............         1.204        19.872
  Continuity Error (%) .....        -0.030
  
  
  **************************        Volume        Volume
  Flow Routing Continuity        hectare-m      10^6 ltr
  **************************     ---------     ---------
  Dry Weather Inflow .......         0.630         6.296
  Wet Weather Inflow .......         5.086        50.859
  Groundwater Inflow .......         0.000         0.000
  RDII Inflow ..............         0.000         0.000
  External Inflow ..........         0.105         1.045
  External Outflow .........         3.589        35.892
  Flooding Loss ............         2.227        22.267
  Evaporation Loss .........         0.000         0.000
  Exfiltration Loss ........         0.000         0.000
  Initial Stored Volume ....         0.303         3.031
  Final Stored Volume ......         0.320         3.202
  Continuity Error (%) .....        -0.213
  
  
  *************************
  Highest Continuity Errors
  *************************
  Node YS02001583 (-5.63%)
  Node YS02001884 (4.42%)
  Node YS02001774 (1.41%)
  Node HS02004817 (1.40%)
  Node WS02006252 (-1.03%)
  
  
  ***************************
  Time-Step Critical Elements
  ***************************
  Link WS02006280WS02006229 (40.90%)
  Link YS02001791YS02001793 (18.20%)
  Link WS02006252WS02006251 (11.91%)
  Link WS02006238WS02006235 (5.13%)
  Link WS02004404WS02004405 (3.51%)
  
  
  ********************************
  Highest Flow Instability Indexes
  ********************************
  Link WS02006252WS02006251 (44)
  Link WS02006238WS02006235 (42)
  Link WS02006239WS02006238 (37)
  Link WS02004404WS02004405 (37)
  Link WS02006235WS02006234 (37)
  
  
  *************************
  Routing Time Step Summary
  *************************
  Minimum Time Step           :     0.00 sec
  Average Time Step           :     2.44 sec
  Maximum Time Step           :     7.27 sec
  Percent in Steady State     :    -0.00
  Average Iterations per Step :     4.79
  Percent Not Converging      :    31.03
  
  
  ***************************
  Subcatchment Runoff Summary
  ***************************
  
  ------------------------------------------------------------------------------------------------------------------------------
                            Total      Total      Total      Total     Imperv       Perv      Total       Total     Peak  Runoff
                           Precip      Runon       Evap      Infil     Runoff     Runoff     Runoff      Runoff   Runoff   Coeff
  Subcatchment                 mm         mm         mm         mm         mm         mm         mm    10^6 ltr      LPS
  ------------------------------------------------------------------------------------------------------------------------------
  sub0                     106.27       0.00       0.00       1.06      97.60       6.38     103.98        0.08    17.00   0.978
  sub1                     106.27       0.00       0.00       1.64      83.66       8.84      92.50        0.62   122.55   0.870
  sub10                    106.27       0.00       0.00       1.04      78.40       5.87      84.27        0.93   186.19   0.793
  sub11                    106.27       0.00       0.00       0.94      72.85       5.48      78.33        0.91   183.33   0.737
  sub12                    106.27       0.00       0.00       1.65      74.06       9.56      83.62        0.73   147.95   0.787
  sub14                    106.27       0.00       0.00       1.03      69.00       5.89      74.88        0.71   143.51   0.705
  sub15                    106.27       0.00       0.00       4.71      62.03      22.22      84.25        1.45   277.04   0.793
  sub16                    106.27       0.00       0.00       5.01      60.50      25.17      85.68        0.90   176.53   0.806
  sub17                    106.27       0.00       0.00       5.36      66.78      26.47      93.24        0.80   156.12   0.877
  sub2                     106.27       0.00       0.00       7.40      61.16      29.02      90.18        0.84   143.34   0.849
  sub22                    106.27       0.00       0.00       8.33      57.91      35.92      93.83        5.93  1051.21   0.883
  sub23                    106.27       0.00       0.00       6.28      59.63      29.19      88.82        4.24   796.88   0.836
  sub3                     106.27       0.00       0.00       7.92      60.59      28.17      88.76        2.00   323.17   0.835
  sub4                     106.27       0.00       0.00       1.79      82.47       8.56      91.02        1.90   347.81   0.857
  sub5                     106.27       0.00       0.00       0.92      80.93       5.25      86.18        0.98   194.93   0.811
  sub60                    106.27       0.00       0.00       1.48      71.25       8.36      79.62        1.05   211.14   0.749
  sub61                    106.27       0.00       0.00       2.28      71.19      12.49      83.68        1.54   309.77   0.787
  sub62                    106.27       0.00       0.00       1.00      75.90       5.68      81.58        2.24   447.38   0.768
  sub63                    106.27       0.00       0.00       4.20      60.97      21.03      82.01        1.86   366.43   0.772
  sub64                    106.27       0.00       0.00       2.01      69.44      10.41      79.85        1.92   379.77   0.751
  sub65                    106.27       0.00       0.00       1.85      74.95       9.50      84.46        2.33   456.37   0.795
  sub66                    106.27       0.00       0.00       4.87      58.99      19.56      78.56        3.66   641.63   0.739
  sub67                    106.27       0.00       0.00       0.99      77.81       5.87      83.67        1.56   314.11   0.787
  sub68                    106.27       0.00       0.00       1.75      68.72       9.58      78.30        2.15   433.42   0.737
  sub69                    106.27       0.00       0.00       1.64      71.50      10.99      82.48        3.05   593.33   0.776
  sub7                     106.27       0.00       0.00       1.09      73.95       6.32      80.27        0.27    54.56   0.755
  sub70                    106.27       0.00       0.00       5.43      57.31      24.15      81.46        2.35   386.39   0.767
  sub71                    106.27       0.00       0.00       0.93      68.96       5.15      74.10        1.94   384.59   0.697
  sub72                    106.27       0.00       0.00       0.89      74.51       4.80      79.30        1.09   211.03   0.746
  sub8                     106.27       0.00       0.00       1.07      71.87       6.13      78.00        0.50   100.38   0.734
  sub9                     106.27       0.00       0.00       1.04      69.67       5.94      75.62        0.36    73.24   0.712
  

  ***********************
  LID Performance Summary
  ***********************

  --------------------------------------------------------------------------------------------------------------------
                                         Total      Evap     Infil   Surface    Drain    Initial     Final  Continuity
                                        Inflow      Loss      Loss   Outflow   Outflow   Storage   Storage       Error
  Subcatchment      LID Control             mm        mm        mm        mm        mm        mm        mm           %
  --------------------------------------------------------------------------------------------------------------------
  sub1              GreenRoof           106.27      0.00      0.00      0.00      0.00      7.05    113.42       -0.09
  sub10             GreenRoof           106.27      0.00      0.00      0.00      0.00      7.05    113.42       -0.09
  sub11             GreenRoof           106.27      0.00      0.00      0.00      0.00      7.05    113.42       -0.09
  sub12             GreenRoof           106.27      0.00      0.00      0.00      0.00      7.05    113.42       -0.09
  sub14             GreenRoof           106.27      0.00      0.00      0.00      0.00      7.05    113.42       -0.09
  sub15             GreenRoof           106.27      0.00      0.00      0.00      0.00      7.05    113.42       -0.09
  sub16             GreenRoof           106.27      0.00      0.00      0.00      0.00      7.05    113.42       -0.09
  sub17             GreenRoof           106.27      0.00      0.00      0.00      0.00      7.05    113.42       -0.09
  sub2              GreenRoof           106.27      0.00      0.00      0.00      0.00      7.05    113.42       -0.09
  sub22             GreenRoof           106.27      0.00      0.00      0.00      0.00      7.05    113.42       -0.09
  sub23             GreenRoof           106.27      0.00      0.00      0.00      0.00      7.05    113.42       -0.09
  sub3              GreenRoof           106.27      0.00      0.00      0.00      0.00      7.05    113.42       -0.09
  sub4              GreenRoof           106.27      0.00      0.00      0.00      0.00      7.05    113.42       -0.09
  sub5              GreenRoof           106.27      0.00      0.00      0.00      0.00      7.05    113.42       -0.09
  sub60             GreenRoof           106.27      0.00      0.00      0.00      0.00      7.05    113.42       -0.09
  sub61             GreenRoof           106.27      0.00      0.00      0.00      0.00      7.05    113.42       -0.09
  sub62             GreenRoof           106.27      0.00      0.00      0.00      0.00      7.05    113.42       -0.09
  sub63             GreenRoof           106.27      0.00      0.00      0.00      0.00      7.05    113.42       -0.09
  sub64             GreenRoof           106.27      0.00      0.00      0.00      0.00      7.05    113.42       -0.09
  sub65             GreenRoof           106.27      0.00      0.00      0.00      0.00      7.05    113.42       -0.09
  sub66             GreenRoof           106.27      0.00      0.00      0.00      0.00      7.05    113.42       -0.09
  sub67             GreenRoof           106.27      0.00      0.00      0.00      0.00      7.05    113.42       -0.09
  sub68             GreenRoof           106.27      0.00      0.00      0.00      0.00      7.05    113.42       -0.09
  sub69             GreenRoof           106.27      0.00      0.00      0.00      0.00      7.05    113.42       -0.09
  sub7              GreenRoof           106.27      0.00      0.00      0.00      0.00      7.05    113.42       -0.09
  sub70             GreenRoof           106.27      0.00      0.00      0.00      0.00      7.05    113.42       -0.09
  sub71             GreenRoof           106.27      0.00      0.00      0.00      0.00      7.05    113.42       -0.09
  sub72             GreenRoof           106.27      0.00      0.00      0.00      0.00      7.05    113.42       -0.09
  sub8              GreenRoof           106.27      0.00      0.00      0.00      0.00      7.05    113.42       -0.09
  sub9              GreenRoof           106.27      0.00      0.00      0.00      0.00      7.05    113.42       -0.09
  
  ******************
  Node Depth Summary
  ******************
  
  ---------------------------------------------------------------------------------
                                 Average  Maximum  Maximum  Time of Max    Reported
                                   Depth    Depth      HGL   Occurrence   Max Depth
  Node                 Type       Meters   Meters   Meters  days hr:min      Meters
  ---------------------------------------------------------------------------------
  HS02004478           JUNCTION     0.42     1.52    10.75     0  01:16        1.41
  HS02004479           JUNCTION     0.52     1.72    10.92     0  01:12        1.61
  HS02004480           JUNCTION     0.49     1.68    10.92     0  01:12        1.56
  HS02004770           JUNCTION     0.48     1.42    11.25     0  01:12        1.42
  HS02004777           JUNCTION     0.50     1.48    11.28     0  01:12        1.45
  HS02004785           JUNCTION     0.39     1.47    11.37     0  01:12        1.32
  HS02004788           JUNCTION     0.37     1.41    11.30     0  01:12        1.31
  HS02004792           JUNCTION     0.48     1.60    11.12     0  01:12        1.60
  HS02004799           JUNCTION     0.57     1.76    10.97     0  01:12        1.73
  HS02004802           JUNCTION     0.51     1.69    10.82     0  01:16        1.52
  HS02004807           JUNCTION     0.48     1.80    10.97     0  01:16        1.51
  HS02004817           JUNCTION     0.77     2.28    11.13     0  01:16        1.84
  HS02004824           JUNCTION     0.34     1.88    11.28     0  01:16        1.29
  HS02004830           JUNCTION     0.32     1.93    11.40     0  01:16        1.21
  HS02004837           JUNCTION     0.27     1.90    11.48     0  01:16        1.10
  HS02004842           JUNCTION     0.55     2.22    11.49     0  01:16        1.40
  HS02004848           JUNCTION     0.25     1.87    11.47     0  01:16        1.05
  HS02004852           JUNCTION     0.26     1.89    11.40     0  01:16        1.10
  HS02004856           JUNCTION     0.31     1.89    11.31     0  01:16        1.14
  HS02004862           JUNCTION     0.28     1.81    11.19     0  01:16        1.13
  HS02004870           JUNCTION     0.29     1.74    11.03     0  01:16        1.14
  HS02004876           JUNCTION     0.37     1.79    10.82     0  01:16        1.29
  HS02004881           JUNCTION     0.32     1.54    10.56     0  01:16        1.16
  HS02004901           JUNCTION     0.49     1.42    11.24     0  01:12        1.42
  WS02001211           JUNCTION     0.64     0.86     5.70     0  01:20        0.82
  WS02001212           JUNCTION     0.40     0.63     5.69     0  01:19        0.60
  WS02001213           JUNCTION     0.62     0.96     5.72     0  01:19        0.86
  WS02003059           JUNCTION     0.68     0.97     5.65     0  01:21        0.95
  WS02003060           JUNCTION     0.42     0.69     5.62     0  01:22        0.68
  WS02003066           JUNCTION     0.25     0.45     6.00     0  01:20        0.45
  WS02003067           JUNCTION     0.57     0.92     6.24     0  01:14        0.88
  WS02003069           JUNCTION     0.47     0.77     5.36     0  01:22        0.77
  WS02003072           JUNCTION     0.52     0.81     5.18     0  01:21        0.80
  WS02003073           JUNCTION     0.32     0.51     4.58     0  01:22        0.51
  WS02004138           JUNCTION     0.13     0.14     7.39     0  00:29        0.14
  WS02004139           JUNCTION     0.58     0.77     5.68     0  01:17        0.77
  WS02004401           JUNCTION     0.90     2.66     8.66     0  01:11        1.93
  WS02004402           JUNCTION     0.90     2.74     8.70     0  01:11        1.88
  WS02004403           JUNCTION     0.89     3.01     8.94     0  01:11        1.71
  WS02004404           JUNCTION     0.94     3.17     9.02     0  01:11        1.75
  WS02004405           JUNCTION     0.93     3.05     8.90     0  01:11        1.69
  WS02004406           JUNCTION     0.90     2.40     8.23     0  01:11        1.53
  WS02004407           JUNCTION     0.35     0.84     7.15     0  01:16        0.83
  WS02004409           JUNCTION     0.64     1.36     7.13     0  01:34        1.36
  WS02004410           JUNCTION     0.63     1.34     7.06     0  01:13        1.24
  WS02004411           JUNCTION     0.62     1.22     6.90     0  01:14        1.22
  WS02004412           JUNCTION     0.61     1.25     6.89     0  01:14        1.08
  WS02004413           JUNCTION     0.72     1.74     7.21     0  01:13        1.13
  WS02006109           JUNCTION     1.26     2.64     9.26     0  01:11        2.64
  WS02006110           JUNCTION     1.15     2.54     9.12     0  01:11        2.41
  WS02006111           JUNCTION     0.63     2.02     8.72     0  01:11        1.67
  WS02006112           JUNCTION     1.15     2.68     8.56     0  01:11        2.38
  WS02006113           JUNCTION     0.71     2.07     8.96     0  01:11        1.76
  WS02006115           JUNCTION     0.86     3.02     9.16     0  01:11        2.05
  WS02006116           JUNCTION     0.91     2.91     8.95     0  01:11        2.04
  WS02006228           JUNCTION     1.36     3.03     9.68     0  01:11        2.99
  WS02006229           JUNCTION     1.40     3.24     9.93     0  01:11        3.15
  WS02006230           JUNCTION     1.26     2.65     9.39     0  01:11        2.65
  WS02006231           JUNCTION     0.96     2.24     9.36     0  01:09        2.24
  WS02006232           JUNCTION     1.02     2.18     9.22     0  01:09        2.18
  WS02006234           JUNCTION     0.88     1.96     9.12     0  01:10        1.96
  WS02006235           JUNCTION     0.87     2.00     9.16     0  01:10        2.00
  WS02006238           JUNCTION     0.89     2.15     9.29     0  01:10        2.15
  WS02006239           JUNCTION     0.81     2.03     9.24     0  01:10        2.03
  WS02006240           JUNCTION     0.74     2.10     9.39     0  01:10        1.96
  WS02006242           JUNCTION     0.75     1.55     8.82     0  01:10        1.55
  WS02006243           JUNCTION     0.63     1.48     8.90     0  01:10        1.48
  WS02006245           JUNCTION     0.61     1.56     9.04     0  01:10        1.56
  WS02006247           JUNCTION     0.61     1.47     8.97     0  01:10        1.35
  WS02006248           JUNCTION     0.54     1.10     8.69     0  01:10        1.10
  WS02006249           JUNCTION     0.56     1.09     8.69     0  01:10        1.09
  WS02006251           JUNCTION     0.85     2.16     9.83     0  01:15        2.06
  WS02006252           JUNCTION     0.62     1.50     9.74     0  00:00        1.50
  WS02006253           JUNCTION     0.97     2.81    10.45     0  01:15        2.50
  WS02006256           JUNCTION     1.17     2.35     9.28     0  00:00        2.35
  WS02006280           JUNCTION     0.57     1.77    10.04     0  01:11        1.66
  WS02006284           JUNCTION     0.78     1.91    10.31     0  01:16        1.83
  WS02006287           JUNCTION     0.52     1.70    10.65     0  01:12        1.58
  WSF200               JUNCTION     0.26     0.57     5.81     0  01:14        0.51
  YS02001580           JUNCTION     0.23     1.05     9.59     0  01:13        0.77
  YS02001583           JUNCTION     0.26     1.14     9.64     0  01:13        0.83
  YS02001586           JUNCTION     0.39     1.13     9.30     0  01:13        1.13
  YS02001590           JUNCTION     0.51     1.40     9.26     0  01:10        1.37
  YS02001593           JUNCTION     0.45     1.33     9.19     0  01:10        1.29
  YS02001596           JUNCTION     0.59     1.68     9.10     0  01:13        1.67
  YS02001600           JUNCTION     0.69     1.87     9.00     0  01:13        1.86
  YS02001601           JUNCTION     0.87     2.06     8.90     0  01:09        2.06
  YS02001602           JUNCTION     0.76     1.87     8.77     0  01:09        1.87
  YS02001605           JUNCTION     0.70     1.78     8.68     0  01:09        1.78
  YS02001607           JUNCTION     0.64     1.68     8.53     0  02:29        1.68
  YS02001610           JUNCTION     0.68     1.68     8.48     0  01:13        1.68
  YS02001613           JUNCTION     0.64     1.70     8.54     0  02:29        1.70
  YS02001616           JUNCTION     0.57     1.61     8.52     0  02:17        1.60
  YS02001619           JUNCTION     0.55     1.60     8.53     0  02:17        1.59
  YS02001622           JUNCTION     0.53     1.58     8.48     0  02:17        1.56
  YS02001625           JUNCTION     0.78     1.78     8.38     0  01:13        1.78
  YS02001629           JUNCTION     0.67     1.85     8.40     0  01:13        1.85
  YS02001633           JUNCTION     0.73     2.02     8.48     0  01:34        2.02
  YS02001641           JUNCTION     0.67     1.96     8.39     0  01:34        1.96
  YS02001644           JUNCTION     0.65     1.92     8.35     0  01:34        1.92
  YS02001647           JUNCTION     0.42     1.62     8.23     0  01:34        1.62
  YS02001649           JUNCTION     0.46     1.58     7.97     0  02:14        1.58
  YS02001652           JUNCTION     0.34     1.43     8.03     0  02:08        1.41
  YS02001655           JUNCTION     0.25     1.33     8.18     0  01:40        1.04
  YS02001658           JUNCTION     0.15     0.69     7.84     0  01:44        0.69
  YS02001661           JUNCTION     0.15     0.39     7.80     0  01:45        0.39
  YS02001664           JUNCTION     0.08     0.23     8.15     0  01:26        0.23
  YS02001745           JUNCTION     0.06     0.19     7.71     0  01:25        0.19
  YS02001748           JUNCTION     0.13     0.59     7.67     0  01:45        0.59
  YS02001751           JUNCTION     0.19     0.79     7.67     0  01:40        0.79
  YS02001754           JUNCTION     0.28     1.08     7.69     0  01:40        1.07
  YS02001757           JUNCTION     0.46     1.46     7.72     0  01:34        1.46
  YS02001759           JUNCTION     0.40     1.36     7.72     0  01:34        1.36
  YS02001762           JUNCTION     0.39     1.32     7.72     0  01:44        1.31
  YS02001765           JUNCTION     0.37     1.28     7.73     0  01:44        1.27
  YS02001767           JUNCTION     0.36     1.25     7.74     0  01:47        1.25
  YS02001770           JUNCTION     0.37     1.27     7.76     0  01:47        1.27
  YS02001774           JUNCTION     0.43     1.35     7.77     0  01:47        1.34
  YS02001779           JUNCTION     0.26     1.09     7.78     0  01:47        1.08
  YS02001783           JUNCTION     0.35     1.22     7.36     0  01:34        1.22
  YS02001784           JUNCTION     0.36     1.10     7.17     0  01:20        1.10
  YS02001786           JUNCTION     0.30     0.87     6.90     0  01:20        0.86
  YS02001788           JUNCTION     0.22     0.62     6.59     0  01:22        0.62
  YS02001790           JUNCTION     0.26     0.72     6.36     0  01:28        0.71
  YS02001791           JUNCTION     0.16     0.43     5.90     0  01:44        0.43
  YS02001793           JUNCTION     0.08     0.30     5.13     0  01:36        0.27
  YS02001882           JUNCTION     0.42     1.60     8.32     0  01:21        1.57
  YS02001884           JUNCTION     0.51     1.70     8.31     0  01:21        1.67
  YS02001887           JUNCTION     0.58     1.77     8.31     0  01:21        1.74
  YS02001890           JUNCTION     0.61     1.80     8.31     0  01:21        1.77
  YS02001895           JUNCTION     0.39     1.55     8.30     0  01:34        1.55
  YS02001898           JUNCTION     0.40     1.54     8.28     0  01:21        1.54
  YS02001901           JUNCTION     0.51     1.68     8.29     0  01:34        1.68
  YS02001904           JUNCTION     0.49     1.65     8.28     0  01:34        1.65
  YS02001907           JUNCTION     0.80     1.96     8.25     0  01:20        1.96
  YS02001910           JUNCTION     0.60     1.80     8.31     0  01:21        1.78
  YS02001915           JUNCTION     0.42     1.62     8.34     0  01:21        1.61
  YS02001918           JUNCTION     0.24     1.31     8.38     0  01:21        1.29
  YS02001920           JUNCTION     0.32     1.40     8.40     0  01:21        1.36
  YS02001923           JUNCTION     0.18     1.16     8.42     0  01:21        1.12
  YS02001926           JUNCTION     0.20     0.99     8.43     0  01:21        0.94
  YS02001929           JUNCTION     0.11     0.73     8.42     0  01:21        0.70
  YS02006553           JUNCTION     0.80     1.96     8.24     0  01:26        1.95
  YS02006556           JUNCTION     0.77     1.91     8.22     0  01:20        1.91
  YS02006558           JUNCTION     0.81     1.94     8.21     0  01:20        1.94
  YS02006561           JUNCTION     0.21     0.87     7.53     0  01:20        0.87
  YS02163301           JUNCTION     0.69     1.95     8.47     0  01:34        1.95
  YS02163601           JUNCTION     0.74     2.06     8.45     0  01:34        2.06
  YS02164001           JUNCTION     0.67     1.97     8.43     0  01:34        1.97
  YSB1154              JUNCTION     0.66     1.88    10.94     0  01:12        1.79
  YSB1171              JUNCTION     0.79     1.95    10.85     0  01:12        1.92
  YSB1174              JUNCTION     0.61     1.79    10.90     0  01:12        1.72
  YSB6556              JUNCTION     0.55     1.74    10.91     0  01:12        1.67
  CC-1                 OUTFALL      0.00     0.00     0.00     0  00:00        0.00
  CC-2                 OUTFALL      0.00     0.00     0.00     0  00:00        0.00
  JK-1                 OUTFALL      0.00     0.00     0.00     0  00:00        0.00
  JK-2                 OUTFALL      0.00     0.00     0.00     0  00:00        0.00
  WSC                  OUTFALL      0.32     0.51     1.18     0  01:25        0.51
  CC-storage           STORAGE      0.75     1.28     6.78     0  02:17        1.28
  JK-storage           STORAGE      1.38     4.23     5.03     0  01:28        4.17
  XR-storage           STORAGE      7.75     9.26     7.26     0  08:00        9.26
  
  
  *******************
  Node Inflow Summary
  *******************
  
  -------------------------------------------------------------------------------------------------
                                  Maximum  Maximum                  Lateral       Total        Flow
                                  Lateral    Total  Time of Max      Inflow      Inflow     Balance
                                   Inflow   Inflow   Occurrence      Volume      Volume       Error
  Node                 Type           LPS      LPS  days hr:min    10^6 ltr    10^6 ltr     Percent
  -------------------------------------------------------------------------------------------------
  HS02004478           JUNCTION      0.00  2169.48     0  01:27           0        14.8      -0.013
  HS02004479           JUNCTION      0.00   344.26     0  01:25           0        1.72       0.047
  HS02004480           JUNCTION      0.00  2067.07     0  01:13           0        12.9       0.006
  HS02004770           JUNCTION    796.88   796.88     0  01:27        4.24        4.56       0.059
  HS02004777           JUNCTION      0.03   723.78     0  01:12    0.000864        3.63       0.147
  HS02004785           JUNCTION      0.15   730.25     0  01:11     0.00432        3.63       0.005
  HS02004788           JUNCTION    278.71   865.76     0  01:13         1.5        5.12       0.013
  HS02004792           JUNCTION   1051.49  1713.06     0  01:28        5.93        11.1       0.002
  HS02004799           JUNCTION    143.51  1757.19     0  01:13       0.713        11.2       0.049
  HS02004802           JUNCTION      0.00   403.53     0  01:27           0        1.98       0.172
  HS02004807           JUNCTION    183.33   403.54     0  01:27        0.91        2.03       0.212
  HS02004817           JUNCTION      0.60   396.49     0  01:12      0.0173        1.18       1.424
  HS02004824           JUNCTION    347.86   596.58     0  01:12         1.9        2.28       0.016
  HS02004830           JUNCTION      0.15   631.25     0  01:12     0.00432        1.49       0.079
  HS02004837           JUNCTION    192.54   758.00     0  01:13        1.11        2.41       0.028
  HS02004842           JUNCTION      0.00   693.69     0  01:14           0        2.22       0.591
  HS02004848           JUNCTION    323.17   926.84     0  01:16           2         4.1       0.003
  HS02004852           JUNCTION      0.00   926.72     0  01:16           0           4      -0.003
  HS02004856           JUNCTION     73.24   984.43     0  01:15       0.364        4.36       0.041
  HS02004862           JUNCTION    143.54  1064.86     0  01:15       0.846        5.21      -0.003
  HS02004870           JUNCTION    100.38  1129.94     0  01:15       0.498        5.71       0.005
  HS02004876           JUNCTION    122.55  1216.83     0  01:15       0.615        6.32       0.013
  HS02004881           JUNCTION     54.56  1226.39     0  01:16        0.27        6.59       0.007
  HS02004901           JUNCTION    176.53   442.08     0  01:26       0.897        1.66       0.107
  WS02001211           JUNCTION      7.35   368.04     0  01:18       0.212        5.45       0.609
  WS02001212           JUNCTION      0.00   474.17     0  01:16           0        5.43       0.289
  WS02001213           JUNCTION      0.00   443.32     0  01:15           0        5.42       0.321
  WS02003059           JUNCTION      0.00   494.15     0  01:14           0        5.43       0.587
  WS02003060           JUNCTION     16.53  1541.27     0  01:14       0.476        16.7       0.088
  WS02003066           JUNCTION      0.00  1250.95     0  01:19           0        10.8       0.014
  WS02003067           JUNCTION      0.00  1245.26     0  01:26           0        10.8       0.040
  WS02003069           JUNCTION      0.32  1489.85     0  01:22     0.00922        16.6       0.094
  WS02003072           JUNCTION      0.00  1480.60     0  01:23           0        16.6       0.126
  WS02003073           JUNCTION      1.82  1478.80     0  01:23      0.0524        16.7       0.129
  WS02004138           JUNCTION      0.00   380.00     0  00:00           0        5.25       0.053
  WS02004139           JUNCTION      0.32   310.08     0  01:17     0.00924        5.26       0.509
  WS02004401           JUNCTION      0.00  1263.77     0  01:14           0        10.9       0.097
  WS02004402           JUNCTION      0.00  1263.46     0  01:14           0        10.9       0.100
  WS02004403           JUNCTION      0.00  1263.78     0  01:14           0        10.9       0.097
  WS02004404           JUNCTION      0.16  1264.07     0  01:14     0.00467        10.9       0.082
  WS02004405           JUNCTION      0.04  1264.98     0  01:14      0.0011        10.9       0.125
  WS02004406           JUNCTION      0.00  1264.45     0  01:14           0        10.9       0.194
  WS02004407           JUNCTION      0.00  1264.07     0  01:14           0        10.9       0.013
  WS02004409           JUNCTION      0.00  1311.81     0  01:12           0        10.9       0.031
  WS02004410           JUNCTION      0.00  1350.21     0  01:12           0        10.9       0.043
  WS02004411           JUNCTION      0.00  1293.84     0  01:13           0        10.9       0.053
  WS02004412           JUNCTION      0.00  1245.58     0  01:28           0        10.9       0.071
  WS02004413           JUNCTION      0.00  1245.27     0  01:28           0        10.8       0.110
  WS02006109           JUNCTION      1.23  1276.98     0  01:11      0.0354        10.5       0.086
  WS02006110           JUNCTION      0.00  1276.36     0  01:11           0        10.2       0.079
  WS02006111           JUNCTION      0.00  1273.51     0  01:11           0        10.2       0.008
  WS02006112           JUNCTION    156.12  1346.90     0  01:11         0.8          11       0.170
  WS02006113           JUNCTION      0.00  1275.77     0  01:11           0        10.2       0.021
  WS02006115           JUNCTION      0.00  1327.57     0  01:11           0        10.9       0.067
  WS02006116           JUNCTION      0.00  1321.05     0  01:11           0        10.9       0.008
  WS02006228           JUNCTION      0.00  1276.96     0  01:11           0        10.4       0.036
  WS02006229           JUNCTION      0.00  2170.23     0  01:27           0        15.9       0.045
  WS02006230           JUNCTION     10.28   958.09     0  01:27       0.296        6.73       0.129
  WS02006231           JUNCTION      0.00   650.15     0  01:09           0        4.15      -0.078
  WS02006232           JUNCTION      0.00   637.09     0  01:09           0        4.12       0.095
  WS02006234           JUNCTION      0.00   636.98     0  01:09           0        4.09       0.009
  WS02006235           JUNCTION      0.00   614.80     0  01:10           0        3.79      -0.059
  WS02006238           JUNCTION      0.00   635.98     0  01:10           0        3.63      -0.099
  WS02006239           JUNCTION      0.00   730.12     0  01:10           0         3.6      -0.088
  WS02006240           JUNCTION      0.00   901.43     0  01:10           0        3.58      -0.091
  WS02006242           JUNCTION      0.00   765.34     0  01:10           0        3.57       0.012
  WS02006243           JUNCTION      0.00   589.24     0  01:10           0        2.67      -0.079
  WS02006245           JUNCTION      0.00   522.02     0  01:10           0        2.68       0.351
  WS02006247           JUNCTION      0.00   517.04     0  01:10           0        2.68      -0.014
  WS02006248           JUNCTION      0.00   551.53     0  01:10           0        3.16       0.016
  WS02006249           JUNCTION      0.00  1329.31     0  01:16           0        9.78       0.058
  WS02006251           JUNCTION      0.08  1326.11     0  01:16     0.00222        9.82       0.023
  WS02006252           JUNCTION      0.00   600.00     0  01:05           0        4.58      -1.021
  WS02006253           JUNCTION     17.00  1252.94     0  01:16      0.0842        6.71       0.026
  WS02006256           JUNCTION      0.00   450.00     0  00:11           0        1.26      -0.670
  WS02006280           JUNCTION      0.00  2168.89     0  01:27           0        14.8      -0.015
  WS02006284           JUNCTION      0.10  2168.04     0  01:27     0.00275        14.8       0.006
  WS02006287           JUNCTION      0.00  2168.53     0  01:27           0        14.8       0.049
  WSF200               JUNCTION      0.00  1251.12     0  01:18           0        10.8       0.008
  YS02001580           JUNCTION      0.00    97.51     0  01:13           0     0.00445       1.863
  YS02001583           JUNCTION      0.00   138.35     0  01:12           0      0.0157      -5.326
  YS02001586           JUNCTION    386.39   386.52     0  01:29        2.35        2.37       0.068
  YS02001590           JUNCTION      0.00   318.06     0  01:40           0        2.23      -0.033
  YS02001593           JUNCTION      0.00   318.23     0  01:52           0        2.23       0.009
  YS02001596           JUNCTION      0.00   318.08     0  02:00           0        2.23      -0.018
  YS02001600           JUNCTION      0.00   318.12     0  02:00           0        2.23       0.021
  YS02001601           JUNCTION    593.33   910.90     0  01:26        3.05        5.28       0.013
  YS02001602           JUNCTION      0.00   575.60     0  01:12           0        3.47       0.013
  YS02001605           JUNCTION      0.00   575.17     0  01:12           0        3.26       0.019
  YS02001607           JUNCTION      0.00   575.19     0  01:12           0        3.26       0.047
  YS02001610           JUNCTION      0.00   555.72     0  01:12           0        3.26       0.080
  YS02001613           JUNCTION      0.00   549.30     0  01:13           0        2.96       0.057
  YS02001616           JUNCTION      0.00   554.00     0  01:13           0        2.97       0.015
  YS02001619           JUNCTION    641.63   936.13     0  01:13        3.66        6.62      -0.002
  YS02001622           JUNCTION      0.00   951.47     0  01:13           0        6.61      -0.001
  YS02001625           JUNCTION      0.00   916.82     0  01:18           0        6.61       0.162
  YS02001629           JUNCTION      0.00   917.78     0  01:13           0        6.46      -0.004
  YS02001633           JUNCTION    456.57  1331.45     0  01:19        2.33         8.8       0.038
  YS02001641           JUNCTION      0.00  1331.59     0  01:19           0         8.8       0.031
  YS02001644           JUNCTION    379.81  1687.67     0  01:19        1.92        10.7       0.029
  YS02001647           JUNCTION      0.00  1688.44     0  01:19           0        10.7      -0.001
  YS02001649           JUNCTION      0.00  2040.28     0  01:17           0        12.6       0.009
  YS02001652           JUNCTION      0.00   452.37     0  01:21           0        1.88      -0.297
  YS02001655           JUNCTION      0.15   603.89     0  01:31     0.00443        1.87      -0.563
  YS02001658           JUNCTION      0.00   411.77     0  01:45           0        1.86       0.033
  YS02001661           JUNCTION      0.00   366.39     0  01:26           0        1.86       0.022
  YS02001664           JUNCTION    366.43   366.43     0  01:26        1.86        1.86      -0.009
  YS02001745           JUNCTION    211.14   211.14     0  01:25        1.05        1.05       0.049
  YS02001748           JUNCTION      0.04   211.17     0  01:25      0.0013        1.05      -0.022
  YS02001751           JUNCTION      0.01   262.46     0  01:26    0.000317        1.05       0.102
  YS02001754           JUNCTION      0.26   316.89     0  01:26     0.00749        1.05      -0.233
  YS02001757           JUNCTION      0.00  2973.18     0  01:18           0        17.4       0.039
  YS02001759           JUNCTION    309.81   775.66     0  01:24        1.54        3.79      -0.012
  YS02001762           JUNCTION      0.00   466.21     0  01:24           0        2.26       0.004
  YS02001765           JUNCTION      0.00   465.07     0  01:24           0        2.25       0.006
  YS02001767           JUNCTION      0.54   471.90     0  01:18      0.0154        2.25       0.009
  YS02001770           JUNCTION    447.53   464.61     0  01:26        2.24        2.29      -0.017
  YS02001774           JUNCTION      0.00   111.84     0  01:19           0      0.0867       1.433
  YS02001779           JUNCTION      0.01    74.28     0  01:15    0.000144      0.0323      -0.547
  YS02001783           JUNCTION      0.00  1141.62     0  01:23           0        6.66       0.004
  YS02001784           JUNCTION      1.06  1142.71     0  01:22      0.0305        6.69       0.007
  YS02001786           JUNCTION      0.06  1142.52     0  01:22     0.00162        6.69       0.010
  YS02001788           JUNCTION      0.07  1142.76     0  01:22     0.00204        6.69       0.004
  YS02001790           JUNCTION      0.15  1154.74     0  01:21     0.00446        6.69       0.018
  YS02001791           JUNCTION      0.00  1272.24     0  01:29           0        6.69      -0.025
  YS02001793           JUNCTION      0.00  1222.47     0  01:36           0        6.69       0.004
  YS02001882           JUNCTION      0.00    68.94     0  01:11           0      0.0154       5.046
  YS02001884           JUNCTION      0.00   123.92     0  01:11           0      0.0522       4.627
  YS02001887           JUNCTION    314.56   320.50     0  01:16        1.57         1.6       0.259
  YS02001890           JUNCTION      0.00   324.28     0  01:16           0        1.56       0.331
  YS02001895           JUNCTION      0.00   327.02     0  01:16           0        1.56       0.178
  YS02001898           JUNCTION      0.00   332.35     0  01:16           0        1.55      -0.038
  YS02001901           JUNCTION      0.00   339.15     0  01:16           0        1.56       0.212
  YS02001904           JUNCTION      0.00   335.58     0  01:16           0        1.58       0.174
  YS02001907           JUNCTION      0.00   998.98     0  01:22           0        4.69       0.384
  YS02001910           JUNCTION      0.00   686.74     0  01:22           0        3.11       0.229
  YS02001915           JUNCTION    384.61   685.96     0  01:22        1.94        3.12       0.048
  YS02001918           JUNCTION      0.00   306.85     0  01:22           0        1.18       0.015
  YS02001920           JUNCTION      2.87   306.93     0  01:22      0.0827        1.18       0.084
  YS02001923           JUNCTION      0.04   333.47     0  01:22     0.00109        1.09      -0.027
  YS02001926           JUNCTION      0.05   279.36     0  01:22      0.0015        1.09       0.028
  YS02001929           JUNCTION    211.03   211.03     0  01:27        1.09        1.09      -0.009
  YS02006553           JUNCTION      0.00   776.14     0  01:46           0        4.55       0.262
  YS02006556           JUNCTION      0.00   776.68     0  01:46           0        4.57       0.172
  YS02006558           JUNCTION    434.30  1142.42     0  01:23        2.18        6.71       0.048
  YS02006561           JUNCTION      0.00  1141.56     0  01:23           0        6.66       0.005
  YS02163301           JUNCTION      0.00   916.37     0  01:18           0        6.48       0.026
  YS02163601           JUNCTION      0.11  1331.35     0  01:19     0.00317        8.79       0.056
  YS02164001           JUNCTION      0.00  1331.40     0  01:19           0        8.79       0.029
  YSB1154              JUNCTION    194.93   194.93     0  01:26       0.976       0.976       0.138
  YSB1171              JUNCTION      0.00   344.23     0  01:25           0        1.72       0.372
  YSB1174              JUNCTION    147.95   147.95     0  01:25       0.731       0.731       0.160
  YSB6556              JUNCTION      0.00   195.30     0  01:25           0       0.979       0.121
  CC-1                 OUTFALL       0.00  1024.50     0  00:01           0        4.62       0.000
  CC-2                 OUTFALL       0.00  1024.50     0  00:01           0        9.08       0.000
  JK-1                 OUTFALL       0.00  1500.00     0  01:11           0       0.966       0.000
  JK-2                 OUTFALL       0.00  1500.00     0  01:11           0        4.59       0.000
  WSC                  OUTFALL       0.00  1477.25     0  01:25           0        16.6       0.000
  CC-storage           STORAGE       0.00  2869.60     0  01:27           0        19.6      -0.144
  JK-storage           STORAGE       0.00  1201.05     0  01:21           0        6.84      -0.241
  XR-storage           STORAGE     200.00   200.00     0  00:00        5.76        6.36       0.001
  
  
  **********************
  Node Surcharge Summary
  **********************
  
  Surcharging occurs when water rises above the top of the highest conduit.
  ---------------------------------------------------------------------
                                               Max. Height   Min. Depth
                                   Hours       Above Crown    Below Rim
  Node                 Type      Surcharged         Meters       Meters
  ---------------------------------------------------------------------
  HS02004478           JUNCTION        1.25          0.603        0.337
  HS02004479           JUNCTION        1.86          0.915        0.135
  HS02004480           JUNCTION        1.89          0.968        0.132
  HS02004770           JUNCTION        1.82          0.720        0.000
  HS02004777           JUNCTION        1.82          0.780        0.000
  HS02004785           JUNCTION        1.43          0.765        0.025
  HS02004788           JUNCTION        1.38          0.706        0.014
  HS02004792           JUNCTION        1.87          0.900        0.000
  HS02004799           JUNCTION        1.93          1.060        0.000
  HS02004802           JUNCTION        1.87          0.984        0.226
  HS02004807           JUNCTION        1.85          1.097        0.123
  HS02004817           JUNCTION        2.07          1.579        0.161
  HS02004824           JUNCTION        1.29          1.180        0.130
  HS02004830           JUNCTION        1.21          1.228        0.102
  HS02004837           JUNCTION        1.13          1.195        0.145
  HS02004842           JUNCTION        1.80          1.517        0.003
  HS02004848           JUNCTION        1.07          1.172        0.198
  HS02004852           JUNCTION        1.11          1.191        0.229
  HS02004856           JUNCTION        1.10          1.118        0.182
  HS02004862           JUNCTION        1.16          1.109        0.191
  HS02004870           JUNCTION        1.23          1.040        0.360
  HS02004876           JUNCTION        1.78          1.089        0.471
  HS02004881           JUNCTION        1.75          0.835        0.615
  HS02004901           JUNCTION        1.83          0.720        0.000
  WS02004401           JUNCTION        2.24          1.660        0.000
  WS02004402           JUNCTION        2.26          1.740        0.000
  WS02004403           JUNCTION        2.26          2.010        0.020
  WS02004404           JUNCTION        2.31          2.175        0.605
  WS02004405           JUNCTION        2.30          2.047        0.753
  WS02004406           JUNCTION        2.29          1.404        1.046
  WS02004409           JUNCTION        1.94          0.361        1.999
  WS02004410           JUNCTION        1.92          0.344        2.196
  WS02004411           JUNCTION        1.90          0.222        2.308
  WS02004412           JUNCTION        1.86          0.252        2.058
  WS02004413           JUNCTION        2.05          0.737        1.463
  WS02006109           JUNCTION        2.47          1.820        0.000
  WS02006110           JUNCTION        2.35          1.626        0.224
  WS02006111           JUNCTION        1.99          1.207        0.663
  WS02006112           JUNCTION        2.40          1.680        0.000
  WS02006113           JUNCTION        2.01          1.266        0.664
  WS02006115           JUNCTION        2.15          2.011        0.239
  WS02006116           JUNCTION        2.18          1.853        0.437
  WS02006228           JUNCTION        2.46          2.200        0.000
  WS02006229           JUNCTION        1.95          1.058        0.012
  WS02006230           JUNCTION        2.30          1.570        0.000
  WS02006231           JUNCTION        2.30          1.530        0.000
  WS02006232           JUNCTION        2.36          1.480        0.000
  WS02006234           JUNCTION        2.27          1.240        0.000
  WS02006235           JUNCTION        2.26          1.290        0.000
  WS02006238           JUNCTION        2.29          1.430        0.000
  WS02006239           JUNCTION        2.27          1.290        0.000
  WS02006240           JUNCTION        2.26          1.390        0.000
  WS02006242           JUNCTION        2.28          0.820        0.000
  WS02006243           JUNCTION        2.26          0.770        0.000
  WS02006245           JUNCTION        2.26          0.850        0.000
  WS02006247           JUNCTION        2.26          0.760        0.000
  WS02006248           JUNCTION        2.25          0.380        0.000
  WS02006249           JUNCTION        2.25          0.390        0.000
  WS02006251           JUNCTION        2.21          1.132        0.048
  WS02006252           JUNCTION        2.49          1.100        0.000
  WS02006253           JUNCTION        2.21          1.768        0.712
  WS02006256           JUNCTION        6.79          2.050        0.000
  WS02006280           JUNCTION        1.91          0.724        0.056
  WS02006284           JUNCTION        1.87          0.627        0.173
  WS02006287           JUNCTION        1.81          0.696        0.194
  YS02001580           JUNCTION        1.60          0.450        0.000
  YS02001583           JUNCTION        1.74          0.500        0.000
  YS02001586           JUNCTION        1.84          0.510        0.000
  YS02001590           JUNCTION        1.89          0.750        0.000
  YS02001593           JUNCTION        1.90          0.706        0.134
  YS02001596           JUNCTION        1.96          0.947        0.123
  YS02001600           JUNCTION        2.00          1.190        0.000
  YS02001601           JUNCTION        2.16          1.440        0.000
  YS02001602           JUNCTION        2.10          1.270        0.000
  YS02001605           JUNCTION        2.08          1.180        0.000
  YS02001607           JUNCTION        1.83          0.680        0.000
  YS02001610           JUNCTION        1.84          0.680        0.000
  YS02001613           JUNCTION        1.83          0.700        0.000
  YS02001616           JUNCTION        1.80          0.606        0.004
  YS02001619           JUNCTION        1.79          0.598        0.012
  YS02001622           JUNCTION        1.79          0.576        0.044
  YS02001625           JUNCTION        1.90          0.780        0.000
  YS02001629           JUNCTION        1.32          0.470        0.000
  YS02001633           JUNCTION        1.90          1.004        0.056
  YS02001641           JUNCTION        1.84          0.957        0.143
  YS02001644           JUNCTION        1.82          0.920        0.000
  YS02001647           JUNCTION        1.08          0.615        0.285
  YS02001649           JUNCTION        1.29          0.579        0.471
  YS02001652           JUNCTION        0.80          0.400        0.730
  YS02001655           JUNCTION        0.03          0.334        0.866
  YS02001754           JUNCTION        0.01          0.032        1.118
  YS02001757           JUNCTION        1.37          0.458        0.752
  YS02001759           JUNCTION        1.10          0.358        0.852
  YS02001762           JUNCTION        1.06          0.323        0.827
  YS02001765           JUNCTION        1.01          0.277        0.823
  YS02001767           JUNCTION        0.97          0.248        0.782
  YS02001770           JUNCTION        0.94          0.239        0.681
  YS02001774           JUNCTION        1.05          0.348        0.702
  YS02001779           JUNCTION        0.09          0.089        0.591
  YS02001783           JUNCTION        1.09          0.417        1.183
  YS02001784           JUNCTION        1.03          0.300        1.190
  YS02001786           JUNCTION        0.55          0.066        1.364
  YS02001882           JUNCTION        0.72          0.605        0.225
  YS02001884           JUNCTION        0.78          0.635        0.235
  YS02001887           JUNCTION        1.07          0.724        0.226
  YS02001890           JUNCTION        1.10          0.752        0.008
  YS02001895           JUNCTION        0.69          0.554        0.196
  YS02001898           JUNCTION        0.67          0.514        0.226
  YS02001901           JUNCTION        1.03          0.676        0.194
  YS02001904           JUNCTION        0.87          0.646        0.204
  YS02001907           JUNCTION        1.85          0.950        0.000
  YS02001910           JUNCTION        1.15          0.799        0.301
  YS02001915           JUNCTION        0.72          0.617        0.383
  YS02001918           JUNCTION        0.52          0.312        0.498
  YS02001920           JUNCTION        0.55          0.395        0.745
  YS02006553           JUNCTION        1.86          0.959        0.231
  YS02006556           JUNCTION        1.33          0.867        0.483
  YS02006558           JUNCTION        1.30          0.845        0.555
  YS02006561           JUNCTION        0.46          0.075        1.075
  YS02163301           JUNCTION        1.89          0.952        0.078
  YS02163601           JUNCTION        1.92          1.056        0.024
  YS02164001           JUNCTION        1.85          0.968        0.132
  YSB1154              JUNCTION        1.97          1.179        0.221
  YSB1171              JUNCTION        1.97          1.100        0.000
  YSB1174              JUNCTION        1.95          1.089        0.161
  YSB6556              JUNCTION        1.92          1.045        0.055
  
  
  *********************
  Node Flooding Summary
  *********************
  
  Flooding refers to all water that overflows a node, whether it ponds or not.
  --------------------------------------------------------------------------
                                                             Total   Maximum
                                 Maximum   Time of Max       Flood    Ponded
                        Hours       Rate    Occurrence      Volume     Depth
  Node                 Flooded       LPS   days hr:min    10^6 ltr    Meters
  --------------------------------------------------------------------------
  HS02004770              0.63    148.40      0  01:27       0.172     0.000
  HS02004777              0.01     42.86      0  01:12       0.000     0.000
  HS02004792              0.60    429.56      0  01:27       0.570     0.000
  HS02004799              0.01     21.19      0  01:16       0.000     0.000
  HS02004901              1.14    442.08      0  01:26       1.332     0.000
  WS02004401              0.01    122.44      0  01:11       0.001     0.000
  WS02004402              0.01    175.64      0  01:11       0.000     0.000
  WS02006109              1.06    133.05      0  01:27       0.278     0.000
  WS02006112              0.01    156.15      0  01:11       0.001     0.000
  WS02006228              0.01     14.39      0  01:11       0.000     0.000
  WS02006230              1.88    505.12      0  01:27       2.333     0.000
  WS02006231              0.01    201.11      0  01:09       0.000     0.000
  WS02006232              0.46    109.89      0  01:09       0.001     0.000
  WS02006234              1.91    128.74      0  01:23       0.499     0.000
  WS02006235              0.01    197.17      0  01:10       0.001     0.000
  WS02006238              0.01    198.59      0  01:10       0.000     0.000
  WS02006239              0.01    589.77      0  01:10       0.002     0.000
  WS02006240              0.01    761.09      0  01:10       0.002     0.000
  WS02006242              1.98    731.65      0  01:10       0.901     0.000
  WS02006243              0.01    514.55      0  01:10       0.006     0.000
  WS02006245              0.01    257.78      0  01:10       0.001     0.000
  WS02006247              0.01    144.80      0  01:10       0.000     0.000
  WS02006248              2.12    375.51      0  01:13       2.419     0.000
  WS02006249              2.21   1251.57      0  01:16       8.562     0.000
  WS02006252              1.82    387.20      0  01:42       1.521     0.000
  WS02006256              0.79    444.46      0  03:06       0.949     0.000
  YS02001583              0.01     86.62      0  01:13       0.000     0.000
  YS02001586              0.98     69.08      0  01:29       0.125     0.000
  YS02001590              0.01     64.73      0  01:10       0.000     0.000
  YS02001600              0.01      1.15      0  01:13       0.000     0.000
  YS02001601              1.79    513.01      0  01:25       1.806     0.000
  YS02001602              1.06     61.98      0  01:27       0.214     0.000
  YS02001605              0.01      0.54      0  02:29       0.000     0.000
  YS02001607              0.01      1.03      0  02:29       0.000     0.000
  YS02001610              0.84    175.37      0  01:29       0.303     0.000
  YS02001613              0.01      1.14      0  02:29       0.000     0.000
  YS02001625              0.64    131.12      0  01:27       0.142     0.000
  YS02001629              0.01     90.45      0  01:13       0.000     0.000
  YS02001644              0.01      1.26      0  01:34       0.000     0.000
  YS02001907              0.40    288.32      0  01:22       0.134     0.000
  YSB1171                 0.01     69.98      0  01:16       0.001     0.000
  
  
  **********************
  Storage Volume Summary
  **********************
  
  --------------------------------------------------------------------------------------------------
                         Average     Avg  Evap Exfil       Maximum     Max    Time of Max    Maximum
                          Volume    Pcnt  Pcnt  Pcnt        Volume    Pcnt     Occurrence    Outflow
  Storage Unit           1000 m3    Full  Loss  Loss       1000 m3    Full    days hr:min        LPS
  --------------------------------------------------------------------------------------------------
  CC-storage               2.089      33     0     0         3.556      55       0  02:17    2549.00
  JK-storage               0.069      24     0     0         0.212      73       0  01:28    3450.00
  XR-storage               0.930      65     0     0         1.111      77       0  08:00     380.00
  
  
  ***********************
  Outfall Loading Summary
  ***********************
  
  -----------------------------------------------------------
                         Flow       Avg       Max       Total
                         Freq      Flow      Flow      Volume
  Outfall Node           Pcnt       LPS       LPS    10^6 ltr
  -----------------------------------------------------------
  CC-1                  36.36    816.19   1024.50       4.616
  CC-2                  51.22   1022.97   1024.50       9.084
  JK-1                   4.02   1031.65   1500.00       0.966
  JK-2                  14.60   1493.91   1500.00       4.595
  WSC                   99.95    739.74   1477.25      16.631
  -----------------------------------------------------------
  System                41.23   5104.46   1477.25      35.892
  
  
  ********************
  Link Flow Summary
  ********************
  
  -----------------------------------------------------------------------------
                                 Maximum  Time of Max   Maximum    Max/    Max/
                                  |Flow|   Occurrence   |Veloc|    Full    Full
  Link                 Type          LPS  days hr:min     m/sec    Flow   Depth
  -----------------------------------------------------------------------------
  1                    CONDUIT   1477.25     0  01:25      3.68    0.51    0.51
  HS02004478WS02006287 CONDUIT   2168.53     0  01:27      2.91    0.61    1.00
  HS02004479HS02004480 CONDUIT    352.90     0  01:12      0.66    0.34    1.00
  HS02004480HS02004478 CONDUIT   2066.77     0  01:13      2.95    8.70    1.00
  HS02004770HS02004777 CONDUIT    723.75     0  01:12      1.03    1.32    1.00
  HS02004777HS02004785 CONDUIT    730.10     0  01:11      1.12    0.90    1.00
  HS02004785HS02004788 CONDUIT    651.08     0  01:13      1.38    4.91    1.00
  HS02004788HS02004792 CONDUIT    865.72     0  01:13      1.46    0.57    1.00
  HS02004792HS02004799 CONDUIT   1626.70     0  01:13      2.32    1.00    1.00
  HS02004799HS02004480 CONDUIT   1757.41     0  01:13      2.51    2.22    1.00
  HS02004802HS02004478 CONDUIT    403.85     0  01:27      0.74    0.36    1.00
  HS02004807HS02004802 CONDUIT    403.53     0  01:27      0.63    0.77    1.00
  HS02004817HS02004807 CONDUIT    395.89     0  01:12      0.57    0.23    1.00
  HS02004817HS02004824 CONDUIT    395.54     0  01:12      0.57    0.18    1.00
  HS02004824HS02004830 CONDUIT    631.10     0  01:12      0.97    0.83    1.00
  HS02004830HS02004837 CONDUIT    588.22     0  01:13      0.88    0.59    1.00
  HS02004837HS02004842 CONDUIT    693.69     0  01:14      0.99    0.41    1.00
  HS02004842HS02004848 CONDUIT    693.89     0  01:14      1.10    0.40    1.00
  HS02004848HS02004852 CONDUIT    926.72     0  01:16      1.56    1.04    1.00
  HS02004852HS02004856 CONDUIT    914.47     0  01:15      1.43    1.05    1.00
  HS02004856HS02004862 CONDUIT    955.99     0  01:15      1.64    0.95    1.00
  HS02004862HS02004870 CONDUIT   1034.88     0  01:15      1.89    1.12    1.00
  HS02004870HS02004876 CONDUIT   1108.86     0  01:15      1.81    0.74    1.00
  HS02004876HS02004881 CONDUIT   1173.47     0  01:16      2.17   12.48    1.00
  HS02004881HS02006253 CONDUIT   1236.27     0  01:16      2.90    0.24    1.00
  HS02004901HS02004770 CONDUIT    265.79     0  01:49      0.38    1.00    1.00
  WS02001211WS02001212 CONDUIT    310.92     0  01:20      0.54    0.24    0.71
  WS02001212WS02001213 CONDUIT    340.71     0  01:21      1.04    0.53    0.60
  WS02001213WS02003059 CONDUIT    295.23     0  01:19      0.47    0.49    0.91
  WS02003059WS02003060 CONDUIT    395.37     0  01:15      0.72    0.26    0.82
  WS02003060WS02003069 CONDUIT   1489.53     0  01:22      2.28    0.58    0.60
  WS02003066WSF200     CONDUIT   1251.12     0  01:18      3.66    0.21    0.39
  WS02003067WS02003066 CONDUIT   1250.95     0  01:19      2.00    0.40    0.56
  WS02003069WS02003072 CONDUIT   1480.60     0  01:23      1.89    0.71    0.65
  WS02003072WS02003073 CONDUIT   1476.98     0  01:23      2.04    3.19    0.61
  WS02004138WS02004139 CONDUIT    190.94     0  00:29      2.16    0.04    0.43
  WS02004139WS02001211 CONDUIT    360.69     0  01:18      0.54    0.46    0.62
  WS02004401WS02004402 CONDUIT   1263.46     0  01:14      1.61    1.52    1.00
  WS02004402WS02004403 CONDUIT   1263.78     0  01:14      1.61    1.82    1.00
  WS02004403WS02004404 CONDUIT   1263.90     0  01:14      1.61    0.91    1.00
  WS02004404WS02004405 CONDUIT   1264.94     0  01:14      1.61   12.39    1.00
  WS02004405WS02004406 CONDUIT   1264.45     0  01:14      1.61    2.49    1.00
  WS02004406WS02004407 CONDUIT   1264.07     0  01:14      2.06    0.56    0.92
  WS02004407WS02004409 CONDUIT   1311.81     0  01:12      2.54    0.46    0.92
  WS02004409WS02004410 CONDUIT   1350.21     0  01:12      1.93    1.75    1.00
  WS02004410WS02004411 CONDUIT   1293.84     0  01:13      1.90    1.77    1.00
  WS02004411WS02004412 CONDUIT   1245.58     0  01:28      1.80    1.77    1.00
  WS02004412WS02004413 CONDUIT   1245.27     0  01:28      1.72    0.83    1.00
  WS02004413WS02003067 CONDUIT   1245.26     0  01:26      1.94    0.53    0.76
  WS02006109WS02006110 CONDUIT   1276.36     0  01:11      2.54    2.45    1.00
  WS02006110WS02006113 CONDUIT   1275.77     0  01:11      2.54    1.16    1.00
  WS02006111WS02006112 CONDUIT   1229.38     0  01:11      2.45    0.58    1.00
  WS02006112WS02006115 CONDUIT   1327.57     0  01:11      1.69    0.78    1.00
  WS02006113WS02006111 CONDUIT   1273.51     0  01:11      2.79    1.53    1.00
  WS02006115WS02006116 CONDUIT   1321.05     0  01:11      1.69    1.70    1.00
  WS02006116WS02004401 CONDUIT   1263.77     0  01:14      1.61    1.74    1.00
  WS02006228WS02006109 CONDUIT   1275.75     0  01:11      2.54    5.57    1.00
  WS02006229WS02006228 CONDUIT   1276.96     0  01:11      2.54    4.23    1.00
  WS02006230WS02006229 CONDUIT    947.81     0  01:27      2.46   21.09    1.00
  WS02006231WS02006230 CONDUIT    650.15     0  01:09      1.70    9.86    1.00
  WS02006232WS02006231 CONDUIT    637.09     0  01:09      1.66    1.33    1.00
  WS02006234WS02006232 CONDUIT    636.98     0  01:09      1.88    1.29    1.00
  WS02006235WS02006234 CONDUIT    614.78     0  01:10      1.60    6.49    1.00
  WS02006238WS02006235 CONDUIT    635.98     0  01:10      2.01    1.42    1.00
  WS02006239WS02006238 CONDUIT    624.86     0  01:10      1.85    2.00    1.00
  WS02006240WS02006239 CONDUIT    590.81     0  01:10      1.62    1.86    1.00
  WS02006242WS02006240 CONDUIT    415.23     0  01:26      1.08    1.65    1.00
  WS02006243WS02006242 CONDUIT    385.38     0  03:24      1.27    0.82    1.00
  WS02006245WS02006243 CONDUIT    480.58     0  01:10      1.39    1.42    1.00
  WS02006247WS02006245 CONDUIT    522.02     0  01:10      1.46    4.14    1.00
  WS02006248WS02006247 CONDUIT    517.04     0  01:10      1.39    1.13    1.00
  WS02006249WS02006248 CONDUIT    551.53     0  01:10      1.49    3.02    1.00
  WS02006251WS02006249 CONDUIT   1329.31     0  01:16      3.45    3.83    1.00
  WS02006252WS02006251 CONDUIT    600.57     0  03:05     25.36    2.20    1.00
  WS02006253WS02006251 CONDUIT   1260.01     0  01:16      3.27    3.78    1.00
  WS02006256WS02006235 CONDUIT    288.93     0  00:00      4.23    3.06    1.00
  WS02006280WS02006229 CONDUIT   2170.23     0  01:27      5.28    0.46    1.00
  WS02006284WS02006280 CONDUIT   2168.89     0  01:27      3.31    0.91    1.00
  WS02006287WS02006284 CONDUIT   2167.95     0  01:27      3.09    1.00    1.00
  WSF200WS02003060     CONDUIT   1401.80     0  01:14      3.28    0.31    0.50
  YS02001580YS02001583 CONDUIT     97.51     0  01:13      0.65    0.38    1.00
  YS02001583YS02001586 CONDUIT    130.26     0  01:12      0.58    0.20    1.00
  YS02001586YS02001590 CONDUIT    318.06     0  01:40      1.29    0.56    1.00
  YS02001590YS02001593 CONDUIT    318.23     0  01:52      1.13    2.00    1.00
  YS02001593YS02001596 CONDUIT    318.08     0  02:00      1.74    0.50    1.00
  YS02001596YS02001600 CONDUIT    318.12     0  02:00      1.26    0.62    1.00
  YS02001600YS02001601 CONDUIT    318.49     0  01:40      1.13    0.55    1.00
  YS02001601YS02001602 CONDUIT    575.60     0  01:12      2.04    2.08    1.00
  YS02001602YS02001605 CONDUIT    575.17     0  01:12      2.03   12.17    1.00
  YS02001605YS02001607 CONDUIT    575.19     0  01:12      2.03    3.15    1.00
  YS02001607YS02001610 CONDUIT    555.72     0  01:12      0.82    0.53    1.00
  YS02001610YS02001613 CONDUIT    549.30     0  01:13      0.76    0.63    1.00
  YS02001613YS02001616 CONDUIT    554.00     0  01:13      0.82    0.47    1.00
  YS02001616YS02001619 CONDUIT    529.41     0  01:13      0.85    0.92    1.00
  YS02001619YS02001622 CONDUIT    951.47     0  01:13      1.79    1.40    1.00
  YS02001622YS02001625 CONDUIT    916.82     0  01:18      1.17    0.49    1.00
  YS02001625YS02001629 CONDUIT    917.78     0  01:13      1.17    0.44    1.00
  YS02001629YS02163301 CONDUIT    916.37     0  01:18      1.17    1.13    1.00
  YS02001633YS02163601 CONDUIT   1331.24     0  01:19      1.69    1.40    1.00
  YS02001641YS02001644 CONDUIT   1332.62     0  01:19      1.70    4.31    1.00
  YS02001644YS02001647 CONDUIT   1688.44     0  01:19      2.20    0.99    1.00
  YS02001647YS02001649 CONDUIT   1691.72     0  01:18      2.38    0.89    1.00
  YS02001649YS02001757 CONDUIT   2021.87     0  01:18      2.66    1.23    1.00
  YS02001652YS02001649 CONDUIT    425.13     0  01:28      1.34    0.21    1.00
  YS02001655YS02001652 CONDUIT    452.37     0  01:21      1.79    0.22    1.00
  YS02001658YS02001655 CONDUIT    603.74     0  01:31      1.95    0.26    0.84
  YS02001661YS02001658 CONDUIT    411.77     0  01:45      2.19    0.16    0.48
  YS02001664YS02001661 CONDUIT    366.39     0  01:26      2.06    0.11    0.30
  YS02001745YS02001748 CONDUIT    211.12     0  01:25      1.98    0.08    0.34
  YS02001748YS02001751 CONDUIT    262.45     0  01:26      1.65    0.13    0.68
  YS02001751YS02001754 CONDUIT    316.63     0  01:26      1.62    0.15    0.89
  YS02001754YS02001757 CONDUIT    322.57     0  01:17      1.05    0.13    1.00
  YS02001757CaochengTiaoxuchi CONDUIT   2869.60     0  01:27      4.15    1.24    1.00
  YS02001759YS02001757 CONDUIT    773.95     0  01:24      1.32    0.55    1.00
  YS02001762YS02001759 CONDUIT    466.42     0  01:24      0.74    0.54    1.00
  YS02001765YS02001762 CONDUIT    466.21     0  01:24      0.86    0.44    1.00
  YS02001767YS02001765 CONDUIT    465.07     0  01:24      0.96    0.58    1.00
  YS02001770YS02001767 CONDUIT    471.37     0  01:18      0.93    1.87    1.00
  YS02001774YS02001770 CONDUIT    109.28     0  01:19      0.72    0.07    1.00
  YS02001779YS02001774 CONDUIT     74.28     0  01:15      0.20    0.04    1.00
  YS02001783YS02001784 CONDUIT   1141.65     0  01:22      2.27    1.57    1.00
  YS02001784YS02001785 CONDUIT   1142.47     0  01:22      2.27    2.66    1.00
  YS02001786YS02001788 CONDUIT   1142.69     0  01:22      2.44    2.20    0.88
  YS02001788YS02001790 CONDUIT   1154.58     0  01:21      2.69    0.85    0.83
  YS02001790YS02001791 CONDUIT   1272.24     0  01:29      3.42    1.38    0.70
  YS02001791YS02001793 CONDUIT   1222.47     0  01:36      6.73    0.52    0.44
  YS02001793JiankangQianchi CONDUIT   1201.05     0  01:21      2.42    0.10    0.65
  YS02001882YS02001884 CONDUIT     68.94     0  01:11      0.41    0.08    1.00
  YS02001884YS02001887 CONDUIT    123.92     0  01:11      0.36    0.17    1.00
  YS02001887YS02001890 CONDUIT    324.28     0  01:16      0.43    0.55    1.00
  YS02001890YS02001895 CONDUIT    327.02     0  01:16      0.46    0.15    1.00
  YS02001895YS02001898 CONDUIT    332.35     0  01:16      0.69    0.58    1.00
  YS02001898YS02001901 CONDUIT    339.15     0  01:16      0.58    0.22    1.00
  YS02001901YS02001904 CONDUIT    335.58     0  01:16      0.64    0.52    1.00
  YS02001904YS02001907 CONDUIT    334.59     0  01:16      0.43    0.12    1.00
  YS02001907YS02006553 CONDUIT    776.14     0  01:46      0.86    0.91    1.00
  YS02001910YS02001907 CONDUIT    686.88     0  01:22      0.87    0.39    1.00
  YS02001915YS02001910 CONDUIT    686.74     0  01:22      1.14    0.34    1.00
  YS02001918YS02001915 CONDUIT    308.01     0  01:22      0.44    0.17    1.00
  YS02001920YS02001918 CONDUIT    306.85     0  01:22      0.72    0.30    1.00
  YS02001923YS02001920 CONDUIT    304.06     0  01:22      0.83    0.14    1.00
  YS02001926YS02001923 CONDUIT    333.43     0  01:22      0.94    0.48    0.94
  YS02001929YS02001926 CONDUIT    279.31     0  01:22      1.05    0.13    0.84
  YS02006553YS02006556 CONDUIT    776.68     0  01:46      0.99    0.66    1.00
  YS02006556YS02006558 CONDUIT    776.89     0  01:46      0.99    0.61    1.00
  YS02006558YS02006561 CONDUIT   1141.56     0  01:23      4.04    2.52    1.00
  YS02006561YS02001783 CONDUIT   1141.62     0  01:23      2.27    0.59    1.00
  YS02163301YS02001633 CONDUIT    916.40     0  01:17      1.17    0.86    1.00
  YS02163601YS02164001 CONDUIT   1331.40     0  01:19      1.70    1.18    1.00
  YS02164001YS02001641 CONDUIT   1331.59     0  01:19      1.70    1.82    1.00
  YSB1154YSB6556       CONDUIT    195.30     0  01:25      0.51    0.35    1.00
  YSB1171HS02004479    CONDUIT    344.26     0  01:25      0.68    0.23    1.00
  YSB1174YSB1171       CONDUIT    148.32     0  01:24      0.39    0.23    1.00
  YSB6556YSB1171       CONDUIT    196.09     0  01:25      0.51    0.20    1.00
  CC-R1                PUMP      1024.50     0  00:01              1.50
  CC-R2                PUMP      1024.50     0  00:01              1.50
  CC-S1                PUMP       300.00     0  01:05              1.50
  CC-S2                PUMP       300.00     0  00:01              1.50
  JK-R1                PUMP      1500.00     0  01:11              1.50
  JK-R2                PUMP      1500.00     0  01:11              1.50
  JK-S                 PUMP       450.00     0  00:11              1.50
  XR-1                 PUMP        95.00     0  00:00              1.00
  XR-2                 PUMP        95.00     0  00:00              1.00
  XR-3                 PUMP        95.00     0  00:00              1.00
  XR-4                 PUMP        95.00     0  00:00              1.00
  
  
  ***************************
  Flow Classification Summary
  ***************************
  
  -------------------------------------------------------------------------------------
                      Adjusted    ---------- Fraction of Time in Flow Class ---------- 
                       /Actual         Up    Down  Sub   Sup   Up    Down  Norm  Inlet 
  Conduit               Length    Dry  Dry   Dry   Crit  Crit  Crit  Crit  Ltd   Ctrl  
  -------------------------------------------------------------------------------------
  1                       1.00   0.00  0.00  0.00  0.00  1.00  0.00  0.00  0.42  0.00
  HS02004478WS02006287    1.00   0.12  0.00  0.00  0.71  0.17  0.00  0.00  0.56  0.00
  HS02004479HS02004480    1.00   0.08  0.00  0.00  0.92  0.00  0.00  0.00  0.09  0.00
  HS02004480HS02004478    1.00   0.12  0.00  0.00  0.66  0.00  0.00  0.23  0.00  0.00
  HS02004770HS02004777    1.00   0.00  0.12  0.00  0.88  0.00  0.00  0.00  0.00  0.00
  HS02004777HS02004785    1.00   0.00  0.00  0.00  1.00  0.00  0.00  0.00  0.09  0.00
  HS02004785HS02004788    1.00   0.00  0.00  0.00  1.00  0.00  0.00  0.00  0.00  0.00
  HS02004788HS02004792    1.00   0.00  0.00  0.00  0.96  0.04  0.00  0.00  0.74  0.00
  HS02004792HS02004799    1.00   0.00  0.00  0.00  0.94  0.05  0.00  0.00  0.73  0.00
  HS02004799HS02004480    1.00   0.01  0.07  0.00  0.88  0.00  0.04  0.00  0.00  0.00
  HS02004802HS02004478    1.00   0.12  0.00  0.00  0.88  0.00  0.00  0.00  0.00  0.00
  HS02004807HS02004802    1.00   0.12  0.00  0.00  0.88  0.00  0.00  0.00  0.00  0.00
  HS02004817HS02004807    1.00   0.00  0.12  0.00  0.88  0.00  0.00  0.00  0.01  0.00
  HS02004817HS02004824    1.00   0.00  0.00  0.00  1.00  0.00  0.00  0.00  0.73  0.00
  HS02004824HS02004830    1.00   0.00  0.00  0.00  1.00  0.00  0.00  0.00  0.00  0.00
  HS02004830HS02004837    1.00   0.00  0.00  0.00  0.99  0.01  0.00  0.00  0.73  0.00
  HS02004837HS02004842    1.00   0.00  0.00  0.00  0.98  0.02  0.00  0.00  0.11  0.00
  HS02004842HS02004848    1.00   0.00  0.12  0.00  0.88  0.00  0.00  0.00  0.52  0.00
  HS02004848HS02004852    1.00   0.12  0.00  0.00  0.88  0.00  0.00  0.00  0.61  0.00
  HS02004852HS02004856    1.00   0.12  0.00  0.00  0.88  0.00  0.00  0.00  0.60  0.00
  HS02004856HS02004862    1.00   0.00  0.12  0.00  0.88  0.00  0.00  0.00  0.62  0.00
  HS02004862HS02004870    1.00   0.00  0.00  0.00  1.00  0.00  0.00  0.00  0.01  0.00
  HS02004870HS02004876    1.00   0.02  0.00  0.00  0.97  0.01  0.00  0.00  0.71  0.00
  HS02004876HS02004881    1.00   0.06  0.00  0.00  0.83  0.10  0.00  0.00  0.00  0.00
  HS02004881HS02006253    1.00   0.03  0.06  0.00  0.44  0.03  0.00  0.45  0.06  0.00
  HS02004901HS02004770    1.00   0.12  0.00  0.00  0.88  0.00  0.00  0.00  0.00  0.00
  WS02001211WS02001212    1.00   0.00  0.07  0.00  0.93  0.00  0.00  0.00  0.00  0.00
  WS02001212WS02001213    1.00   0.07  0.00  0.00  0.52  0.00  0.41  0.00  0.00  0.00
  WS02001213WS02003059    1.00   0.00  0.03  0.00  0.97  0.00  0.00  0.00  0.00  0.00
  WS02003059WS02003060    1.00   0.00  0.00  0.00  0.99  0.01  0.00  0.00  0.03  0.00
  WS02003060WS02003069    1.00   0.00  0.00  0.00  0.96  0.04  0.00  0.00  0.47  0.00
  WS02003066WSF200        1.00   0.12  0.00  0.00  0.00  0.88  0.00  0.00  0.57  0.00
  WS02003067WS02003066    1.00   0.11  0.01  0.00  0.89  0.00  0.00  0.00  0.00  0.00
  WS02003069WS02003072    1.00   0.00  0.00  0.00  0.98  0.02  0.00  0.00  0.63  0.00
  WS02003072WS02003073    1.00   0.00  0.00  0.00  0.00  0.00  0.00  1.00  0.00  0.00
  WS02004138WS02004139    1.00   0.00  0.00  0.00  0.93  0.01  0.00  0.06  0.98  0.00
  WS02004139WS02001211    1.00   0.00  0.01  0.00  0.98  0.00  0.01  0.00  0.00  0.00
  WS02004401WS02004402    1.00   0.07  0.00  0.00  0.93  0.00  0.00  0.00  0.00  0.00
  WS02004402WS02004403    1.00   0.07  0.00  0.00  0.93  0.00  0.00  0.00  0.00  0.00
  WS02004403WS02004404    1.00   0.00  0.07  0.00  0.93  0.00  0.00  0.00  0.00  0.00
  WS02004404WS02004405    1.00   0.00  0.00  0.00  1.00  0.00  0.00  0.00  0.00  0.00
  WS02004405WS02004406    1.00   0.00  0.00  0.00  1.00  0.00  0.00  0.00  0.00  0.00
  WS02004406WS02004407    1.00   0.00  0.08  0.00  0.91  0.00  0.00  0.00  0.00  0.00
  WS02004407WS02004409    1.00   0.09  0.00  0.00  0.91  0.01  0.00  0.00  0.70  0.00
  WS02004409WS02004410    1.00   0.09  0.00  0.00  0.91  0.00  0.00  0.00  0.03  0.00
  WS02004410WS02004411    1.00   0.09  0.00  0.00  0.91  0.00  0.00  0.00  0.01  0.00
  WS02004411WS02004412    1.00   0.09  0.00  0.00  0.91  0.00  0.00  0.00  0.00  0.00
  WS02004412WS02004413    1.00   0.09  0.00  0.00  0.91  0.00  0.00  0.00  0.01  0.00
  WS02004413WS02003067    1.00   0.09  0.02  0.00  0.00  0.00  0.89  0.00  0.00  0.00
  WS02006109WS02006110    1.00   0.00  0.04  0.00  0.94  0.00  0.02  0.00  0.00  0.00
  WS02006110WS02006113    1.00   0.04  0.02  0.00  0.94  0.00  0.00  0.00  0.00  0.00
  WS02006111WS02006112    1.00   0.07  0.00  0.00  0.93  0.00  0.00  0.00  0.69  0.00
  WS02006112WS02006115    1.00   0.07  0.00  0.00  0.93  0.00  0.00  0.00  0.00  0.00
  WS02006113WS02006111    1.00   0.06  0.00  0.00  0.40  0.54  0.00  0.00  0.05  0.00
  WS02006115WS02006116    1.00   0.07  0.00  0.00  0.92  0.00  0.00  0.01  0.00  0.00
  WS02006116WS02004401    1.00   0.07  0.00  0.00  0.93  0.00  0.00  0.00  0.00  0.00
  WS02006228WS02006109    1.00   0.00  0.00  0.00  1.00  0.00  0.00  0.00  0.00  0.00
  WS02006229WS02006228    1.00   0.00  0.00  0.00  0.96  0.00  0.00  0.04  0.00  0.00
  WS02006230WS02006229    1.00   0.00  0.00  0.00  0.94  0.00  0.00  0.06  0.02  0.00
  WS02006231WS02006230    1.00   0.00  0.00  0.00  0.52  0.00  0.47  0.00  0.00  0.00
  WS02006232WS02006231    1.00   0.00  0.00  0.00  0.98  0.00  0.02  0.00  0.00  0.00
  WS02006234WS02006232    1.00   0.00  0.00  0.00  0.99  0.01  0.00  0.00  0.05  0.00
  WS02006235WS02006234    1.00   0.00  0.00  0.00  0.84  0.00  0.16  0.00  0.00  0.00
  WS02006238WS02006235    1.00   0.00  0.00  0.00  1.00  0.00  0.00  0.00  0.00  0.00
  WS02006239WS02006238    1.00   0.00  0.00  0.00  1.00  0.00  0.00  0.00  0.20  0.00
  WS02006240WS02006239    1.00   0.00  0.00  0.00  0.73  0.00  0.00  0.27  0.01  0.00
  WS02006242WS02006240    1.00   0.01  0.00  0.00  0.97  0.00  0.02  0.00  0.00  0.00
  WS02006243WS02006242    1.00   0.00  0.00  0.00  0.96  0.00  0.00  0.03  0.63  0.00
  WS02006245WS02006243    1.00   0.00  0.00  0.00  0.90  0.00  0.00  0.10  0.00  0.00
  WS02006247WS02006245    1.00   0.00  0.00  0.00  0.96  0.00  0.00  0.04  0.00  0.00
  WS02006248WS02006247    1.00   0.00  0.00  0.00  0.98  0.00  0.00  0.01  0.54  0.00
  WS02006249WS02006248    1.00   0.00  0.00  0.00  0.64  0.00  0.36  0.00  0.00  0.00
  WS02006251WS02006249    1.00   0.00  0.00  0.00  0.99  0.01  0.00  0.00  0.57  0.00
  WS02006252WS02006251    1.00   0.26  0.19  0.00  0.41  0.00  0.14  0.00  0.00  0.00
  WS02006253WS02006251    1.00   0.00  0.00  0.00  0.98  0.00  0.02  0.00  0.01  0.00
  WS02006256WS02006235    1.00   0.00  0.00  0.00  0.99  0.01  0.00  0.00  0.00  0.00
  WS02006280WS02006229    1.00   0.12  0.00  0.00  0.35  0.04  0.00  0.49  0.01  0.00
  WS02006284WS02006280    1.00   0.12  0.00  0.00  0.34  0.00  0.00  0.53  0.00  0.00
  WS02006287WS02006284    1.00   0.11  0.01  0.00  0.61  0.25  0.00  0.02  0.61  0.00
  WSF200WS02003060        1.00   0.00  0.12  0.00  0.40  0.48  0.00  0.00  0.54  0.00
  YS02001580YS02001583    1.00   0.15  0.35  0.00  0.51  0.00  0.00  0.00  0.61  0.00
  YS02001583YS02001586    1.00   0.30  0.14  0.00  0.56  0.00  0.00  0.00  0.62  0.00
  YS02001586YS02001590    1.00   0.12  0.00  0.00  0.64  0.02  0.00  0.22  0.23  0.00
  YS02001590YS02001593    1.00   0.12  0.00  0.00  0.35  0.00  0.53  0.00  0.00  0.00
  YS02001593YS02001596    1.00   0.12  0.00  0.00  0.37  0.01  0.00  0.51  0.01  0.00
  YS02001596YS02001600    1.00   0.12  0.00  0.00  0.41  0.01  0.00  0.46  0.02  0.00
  YS02001600YS02001601    1.00   0.12  0.00  0.00  0.88  0.00  0.00  0.00  0.56  0.00
  YS02001601YS02001602    1.00   0.12  0.00  0.00  0.88  0.00  0.00  0.00  0.00  0.00
  YS02001602YS02001605    1.00   0.12  0.00  0.00  0.88  0.00  0.00  0.00  0.00  0.00
  YS02001605YS02001607    1.00   0.12  0.00  0.00  0.88  0.00  0.00  0.00  0.00  0.00
  YS02001607YS02001610    1.00   0.12  0.00  0.00  0.88  0.00  0.00  0.00  0.00  0.00
  YS02001610YS02001613    1.00   0.12  0.00  0.00  0.88  0.00  0.00  0.00  0.00  0.00
  YS02001613YS02001616    1.00   0.12  0.00  0.00  0.88  0.00  0.00  0.00  0.00  0.00
  YS02001616YS02001619    1.00   0.12  0.00  0.00  0.88  0.00  0.00  0.00  0.00  0.00
  YS02001619YS02001622    1.00   0.12  0.00  0.00  0.87  0.01  0.00  0.00  0.32  0.00
  YS02001622YS02001625    1.00   0.12  0.00  0.00  0.88  0.00  0.00  0.00  0.01  0.00
  YS02001625YS02001629    1.00   0.12  0.01  0.00  0.37  0.00  0.51  0.00  0.00  0.00
  YS02001629YS02163301    1.00   0.12  0.00  0.00  0.88  0.00  0.00  0.00  0.00  0.00
  YS02001633YS02163601    1.00   0.00  0.03  0.00  0.97  0.00  0.00  0.00  0.12  0.00
  YS02001641YS02001644    1.00   0.00  0.02  0.00  0.98  0.00  0.00  0.00  0.00  0.00
  YS02001644YS02001647    1.00   0.00  0.12  0.00  0.88  0.00  0.00  0.00  0.00  0.00
  YS02001647YS02001649    1.00   0.00  0.12  0.00  0.58  0.30  0.00  0.00  0.55  0.00
  YS02001649YS02001757    1.00   0.00  0.00  0.00  0.68  0.32  0.00  0.00  0.48  0.00
  YS02001652YS02001649    1.00   0.00  0.00  0.00  0.99  0.01  0.00  0.00  0.68  0.00
  YS02001655YS02001652    1.00   0.00  0.00  0.00  0.39  0.01  0.00  0.60  0.04  0.00
  YS02001658YS02001655    1.00   0.00  0.12  0.00  0.67  0.21  0.00  0.00  0.68  0.00
  YS02001661YS02001658    1.00   0.12  0.00  0.00  0.44  0.44  0.00  0.00  0.77  0.00
  YS02001664YS02001661    1.00   0.12  0.00  0.00  0.51  0.37  0.00  0.00  0.87  0.00
  YS02001745YS02001748    1.00   0.00  0.00  0.00  0.18  0.02  0.00  0.80  0.14  0.00
  YS02001748YS02001751    1.00   0.00  0.00  0.00  0.85  0.15  0.00  0.00  0.79  0.00
  YS02001751YS02001754    1.00   0.00  0.00  0.00  0.35  0.00  0.00  0.65  0.02  0.00
  YS02001754YS02001757    1.00   0.00  0.00  0.00  1.00  0.00  0.00  0.00  0.74  0.00
  YS02001757CaochengTiaoxuchi    1.00   0.00  0.00  0.00  0.94  0.06  0.00  0.00  0.75  0.00
  YS02001759YS02001757    1.00   0.00  0.00  0.00  1.00  0.00  0.00  0.00  0.59  0.00
  YS02001762YS02001759    1.00   0.00  0.00  0.00  1.00  0.00  0.00  0.00  0.02  0.00
  YS02001765YS02001762    1.00   0.00  0.00  0.00  1.00  0.00  0.00  0.00  0.68  0.00
  YS02001767YS02001765    1.00   0.00  0.00  0.00  1.00  0.00  0.00  0.00  0.00  0.00
  YS02001770YS02001767    1.00   0.00  0.00  0.00  1.00  0.00  0.00  0.00  0.00  0.00
  YS02001774YS02001770    1.00   0.00  0.11  0.00  0.75  0.00  0.14  0.00  0.00  0.00
  YS02001779YS02001774    1.00   0.00  0.00  0.00  1.00  0.00  0.00  0.00  0.72  0.00
  YS02001783YS02001784    1.00   0.00  0.12  0.00  0.88  0.00  0.00  0.00  0.55  0.00
  YS02001784YS02001785    1.00   0.00  0.00  0.00  1.00  0.00  0.00  0.00  0.12  0.00
  YS02001786YS02001788    1.00   0.00  0.00  0.00  0.67  0.33  0.00  0.00  0.00  0.00
  YS02001788YS02001790    1.00   0.00  0.00  0.00  0.18  0.82  0.00  0.00  0.74  0.00
  YS02001790YS02001791    1.00   0.00  0.00  0.00  0.06  0.94  0.00  0.00  0.15  0.00
  YS02001791YS02001793    1.00   0.00  0.00  0.00  0.00  1.00  0.00  0.00  0.01  0.00
  YS02001793JiankangQianchi    1.00   0.00  0.00  0.00  0.98  0.02  0.00  0.00  0.95  0.00
  YS02001882YS02001884    1.00   0.12  0.00  0.00  0.88  0.00  0.00  0.00  0.00  0.00
  YS02001884YS02001887    1.00   0.09  0.02  0.00  0.89  0.00  0.00  0.00  0.00  0.00
  YS02001887YS02001890    1.00   0.00  0.00  0.00  0.93  0.00  0.07  0.00  0.00  0.00
  YS02001890YS02001895    1.00   0.01  0.11  0.00  0.88  0.00  0.00  0.00  0.00  0.00
  YS02001895YS02001898    1.00   0.12  0.00  0.00  0.87  0.00  0.01  0.00  0.00  0.00
  YS02001898YS02001901    1.00   0.12  0.00  0.00  0.88  0.00  0.00  0.00  0.00  0.00
  YS02001901YS02001904    1.00   0.12  0.00  0.00  0.88  0.00  0.00  0.00  0.00  0.00
  YS02001904YS02001907    1.00   0.01  0.11  0.00  0.88  0.00  0.00  0.00  0.00  0.00
  YS02001907YS02006553    1.00   0.01  0.06  0.00  0.93  0.00  0.00  0.00  0.00  0.00
  YS02001910YS02001907    1.00   0.00  0.00  0.00  0.93  0.00  0.00  0.07  0.10  0.00
  YS02001915YS02001910    1.00   0.00  0.00  0.00  0.98  0.02  0.00  0.00  0.11  0.00
  YS02001918YS02001915    1.00   0.00  0.02  0.00  0.95  0.03  0.00  0.00  0.63  0.00
  YS02001920YS02001918    1.00   0.00  0.02  0.00  0.98  0.00  0.00  0.00  0.00  0.00
  YS02001923YS02001920    1.00   0.00  0.00  0.00  1.00  0.00  0.00  0.00  0.85  0.00
  YS02001926YS02001923    1.00   0.00  0.09  0.00  0.13  0.00  0.78  0.00  0.00  0.00
  YS02001929YS02001926    1.00   0.00  0.12  0.00  0.88  0.00  0.00  0.00  0.80  0.00
  YS02006553YS02006556    1.00   0.05  0.00  0.00  0.95  0.00  0.00  0.00  0.03  0.00
  YS02006556YS02006558    1.00   0.00  0.01  0.00  0.99  0.00  0.00  0.00  0.00  0.00
  YS02006558YS02006561    1.00   0.12  0.00  0.00  0.10  0.78  0.00  0.00  0.10  0.00
  YS02006561YS02001783    1.00   0.12  0.00  0.00  0.25  0.63  0.00  0.00  0.61  0.00
  YS02163301YS02001633    1.00   0.00  0.12  0.00  0.88  0.00  0.00  0.00  0.00  0.00
  YS02163601YS02164001    1.00   0.00  0.10  0.00  0.90  0.00  0.00  0.00  0.00  0.00
  YS02164001YS02001641    1.00   0.03  0.07  0.00  0.90  0.00  0.00  0.00  0.05  0.00
  YSB1154YSB6556          1.00   0.12  0.00  0.00  0.88  0.00  0.00  0.00  0.01  0.00
  YSB1171HS02004479       1.00   0.08  0.00  0.00  0.91  0.00  0.00  0.01  0.08  0.00
  YSB1174YSB1171          1.00   0.08  0.02  0.00  0.90  0.00  0.00  0.00  0.00  0.00
  YSB6556YSB1171          1.00   0.08  0.04  0.00  0.88  0.00  0.00  0.00  0.00  0.00
  
  
  *************************
  Conduit Surcharge Summary
  *************************
  
  ----------------------------------------------------------------------------
                                                           Hours        Hours 
                         --------- Hours Full --------   Above Full   Capacity
  Conduit                Both Ends  Upstream  Dnstream   Normal Flow   Limited
  ----------------------------------------------------------------------------
  HS02004478WS02006287        1.25      1.25      1.86      0.01         0.01
  HS02004479HS02004480        1.89      1.89      1.91      0.01         0.01
  HS02004480HS02004478        1.81      1.89      1.81      2.26         1.81
  HS02004770HS02004777        1.82      1.82      1.82      0.30         0.28
  HS02004777HS02004785        1.43      1.43      1.82      0.01         0.01
  HS02004785HS02004788        1.38      1.43      1.38      2.11         1.37
  HS02004788HS02004792        1.38      1.38      1.87      0.01         0.01
  HS02004792HS02004799        1.87      1.87      1.93      0.01         0.01
  HS02004799HS02004480        1.89      1.89      1.93      1.96         0.01
  HS02004802HS02004478        1.82      1.82      1.89      0.01         0.01
  HS02004807HS02004802        1.85      1.85      1.87      0.01         0.01
  HS02004817HS02004807        1.85      1.85      2.07      0.01         0.01
  HS02004817HS02004824        1.29      1.29      2.07      0.01         0.01
  HS02004824HS02004830        1.21      1.21      1.29      0.01         0.01
  HS02004830HS02004837        1.13      1.13      1.21      0.01         0.01
  HS02004837HS02004842        1.13      1.13      1.80      0.01         0.01
  HS02004842HS02004848        1.07      1.07      1.80      0.01         0.01
  HS02004848HS02004852        1.07      1.07      1.11      0.02         0.01
  HS02004852HS02004856        1.11      1.11      1.15      0.02         0.01
  HS02004856HS02004862        1.10      1.10      1.16      0.01         0.01
  HS02004862HS02004870        1.16      1.16      1.23      0.02         0.01
  HS02004870HS02004876        1.23      1.23      1.78      0.01         0.01
  HS02004876HS02004881        1.75      1.78      1.75      2.15         1.75
  HS02004881HS02006253        1.75      1.75      2.21      0.01         0.01
  HS02004901HS02004770        1.82      1.82      1.83      0.19         0.02
  WS02003072WS02003073        0.01      0.01      0.01      2.71         0.01
  WS02004401WS02004402        2.24      2.24      2.26      2.12         2.07
  WS02004402WS02004403        2.26      2.26      2.26      2.26         2.22
  WS02004403WS02004404        2.26      2.26      2.31      0.01         0.04
  WS02004404WS02004405        2.30      2.31      2.30      3.19         2.30
  WS02004405WS02004406        2.29      2.30      2.29      2.38         2.29
  WS02004406WS02004407        0.01      0.01      2.29      0.01         0.01
  WS02004407WS02004409        0.01      0.01      1.94      0.01         0.01
  WS02004409WS02004410        1.92      1.94      1.92      2.15         1.91
  WS02004410WS02004411        1.90      1.92      1.90      2.21         1.90
  WS02004411WS02004412        1.86      1.90      1.86      2.23         1.86
  WS02004412WS02004413        1.86      1.86      2.04      0.01         0.01
  WS02004413WS02003067        0.01      0.01      2.04      0.01         0.01
  WS02006109WS02006110        2.35      2.35      2.49      2.36         0.01
  WS02006110WS02006113        2.01      2.01      2.48      1.03         0.01
  WS02006111WS02006112        1.99      1.99      2.61      0.01         0.01
  WS02006112WS02006115        2.15      2.15      2.40      0.01         0.01
  WS02006113WS02006111        2.00      2.01      2.00      2.11         1.99
  WS02006115WS02006116        2.17      2.18      2.18      2.17         2.13
  WS02006116WS02004401        2.24      2.24      2.24      2.24         2.20
  WS02006228WS02006109        2.47      2.49      2.47      2.66         2.47
  WS02006229WS02006228        2.46      2.48      2.46      2.57         2.46
  WS02006230WS02006229        2.51      2.52      2.51      3.51         0.44
  WS02006231WS02006230        2.29      2.30      2.31      2.99         2.04
  WS02006232WS02006231        2.30      2.30      2.36      0.03         0.40
  WS02006234WS02006232        2.30      2.30      2.36      0.02         0.06
  WS02006235WS02006234        2.25      2.27      2.26      2.71         2.00
  WS02006238WS02006235        2.28      2.28      2.31      0.01         0.78
  WS02006239WS02006238        2.28      2.30      2.29      2.04         0.12
  WS02006240WS02006239        2.26      2.27      2.27      2.02         0.11
  WS02006242WS02006240        2.26      2.26      2.29      2.18         1.96
  WS02006243WS02006242        2.26      2.26      2.28      0.01         0.04
  WS02006245WS02006243        2.26      2.26      2.26      0.06         0.11
  WS02006247WS02006245        2.26      2.26      2.26      2.46         0.19
  WS02006248WS02006247        2.25      2.25      2.26      0.01         0.06
  WS02006249WS02006248        2.25      2.25      2.25      0.40         0.01
  WS02006251WS02006249        2.25      2.26      2.25      2.25         2.18
  WS02006252WS02006251        2.26      2.52      2.46      1.86         0.01
  WS02006253WS02006251        2.26      2.26      2.27      1.96         0.02
  WS02006256WS02006235        2.68      2.82      6.70      0.25         0.01
  WS02006280WS02006229        1.91      1.91      1.95      0.01         0.01
  WS02006284WS02006280        1.87      1.87      1.91      0.01         0.01
  WS02006287WS02006284        1.81      1.81      1.88      0.10         0.11
  YS02001580YS02001583        1.60      1.60      1.79      0.01         0.01
  YS02001583YS02001586        1.73      1.73      1.84      0.01         0.01
  YS02001586YS02001590        1.85      1.85      1.89      0.01         0.01
  YS02001590YS02001593        1.90      1.90      1.91      1.90         0.01
  YS02001593YS02001596        1.90      1.90      1.96      0.01         0.01
  YS02001596YS02001600        1.97      1.97      2.00      0.01         0.01
  YS02001600YS02001601        2.03      2.03      2.16      0.01         0.01
  YS02001601YS02001602        2.10      2.10      2.18      2.03         0.01
  YS02001602YS02001605        2.08      2.08      2.10      2.62         0.01
  YS02001605YS02001607        2.06      2.08      2.06      2.13         2.06
  YS02001607YS02001610        1.83      1.83      1.84      0.01         0.01
  YS02001610YS02001613        1.83      1.83      1.84      0.01         0.01
  YS02001613YS02001616        1.80      1.80      1.83      0.01         0.01
  YS02001616YS02001619        1.79      1.79      1.80      0.01         0.01
  YS02001619YS02001622        1.79      1.79      1.79      1.91         1.72
  YS02001622YS02001625        1.79      1.79      1.90      0.01         0.01
  YS02001625YS02001629        1.32      1.32      1.90      0.01         0.01
  YS02001629YS02163301        1.89      1.89      1.89      1.31         1.16
  YS02001633YS02163601        1.90      1.90      1.92      1.83         1.83
  YS02001641YS02001644        1.82      1.84      1.82      2.18         1.82
  YS02001644YS02001647        1.08      1.08      1.82      0.01         0.01
  YS02001647YS02001649        1.08      1.08      1.29      0.01         0.01
  YS02001649YS02001757        1.27      1.29      1.37      0.97         0.80
  YS02001652YS02001649        0.95      0.95      1.29      0.01         0.01
  YS02001655YS02001652        0.03      0.03      0.80      0.01         0.01
  YS02001658YS02001655        0.01      0.01      0.03      0.01         0.01
  YS02001751YS02001754        0.01      0.01      0.01      0.01         0.01
  YS02001754YS02001757        0.20      0.20      1.37      0.01         0.01
  YS02001757CaochengTiaoxuchi        1.17      1.37      1.70      1.01         0.63
  YS02001759YS02001757        1.10      1.10      1.37      0.01         0.01
  YS02001762YS02001759        1.06      1.06      1.10      0.01         0.01
  YS02001765YS02001762        1.01      1.01      1.06      0.01         0.01
  YS02001767YS02001765        0.97      0.97      1.01      0.01         0.01
  YS02001770YS02001767        0.97      0.98      0.97      1.26         0.73
  YS02001774YS02001770        0.94      0.94      1.05      0.01         0.01
  YS02001779YS02001774        0.09      0.09      1.05      0.01         0.01
  YS02001783YS02001784        1.03      1.09      1.03      1.40         1.03
  YS02001784YS02001785        0.55      1.03      0.55      1.93         0.55
  YS02001786YS02001788        0.01      0.55      0.01      1.88         0.01
  YS02001790YS02001791        0.01      0.01      0.01      0.88         0.01
  YS02001793JiankangQianchi        0.01      0.01      7.17      0.01         0.01
  YS02001882YS02001884        0.72      0.72      0.78      0.01         0.01
  YS02001884YS02001887        1.03      1.03      1.07      0.01         0.01
  YS02001887YS02001890        1.10      1.10      1.12      0.01         0.01
  YS02001890YS02001895        0.69      0.69      1.15      0.01         0.01
  YS02001895YS02001898        0.67      0.67      0.69      0.01         0.01
  YS02001898YS02001901        0.70      0.70      1.03      0.01         0.01
  YS02001901YS02001904        0.87      0.87      1.03      0.01         0.01
  YS02001904YS02001907        0.86      0.86      1.87      0.01         0.01
  YS02001907YS02006553        1.93      1.93      1.96      0.01         0.01
  YS02001910YS02001907        1.15      1.15      1.85      0.01         0.01
  YS02001915YS02001910        0.72      0.72      1.15      0.01         0.01
  YS02001918YS02001915        0.52      0.52      0.72      0.01         0.01
  YS02001920YS02001918        0.52      0.52      0.55      0.01         0.01
  YS02001923YS02001920        0.43      0.43      0.55      0.01         0.01
  YS02006553YS02006556        1.33      1.33      1.86      0.01         0.01
  YS02006556YS02006558        1.76      1.76      1.87      0.01         0.01
  YS02006558YS02006561        0.59      1.30      0.59      1.91         0.59
  YS02006561YS02001783        0.46      0.46      1.09      0.01         0.01
  YS02163301YS02001633        1.89      1.89      1.91      0.01         0.01
  YS02163601YS02164001        1.85      1.85      1.92      0.92         0.01
  YS02164001YS02001641        1.84      1.85      1.84      1.95         1.84
  YSB1154YSB6556              1.92      1.92      1.97      0.01         0.01
  YSB1171HS02004479           1.86      1.86      1.97      0.01         0.01
  YSB1174YSB1171              1.95      1.95      2.03      0.01         0.01
  YSB6556YSB1171              1.92      1.92      2.08      0.01         0.01
  
  
  ***************
  Pumping Summary
  ***************
  
  ---------------------------------------------------------------------------------------------------------
                                                  Min       Avg       Max     Total     Power    % Time Off
                        Percent   Number of      Flow      Flow      Flow    Volume     Usage    Pump Curve
  Pump                 Utilized   Start-Ups       LPS       LPS       LPS  10^6 ltr     Kw-hr    Low   High
  ---------------------------------------------------------------------------------------------------------
  CC-R1                   20.75          43      0.00    816.19   1024.50     4.623     82.85    0.0   20.9
  CC-R2                   31.02          82      0.00   1022.97   1024.50     9.131    162.80    0.0   31.6
  CC-S1                   26.47          73      0.00    278.50    300.00     2.104     17.22    0.0    0.0
  CC-S2                   28.90          33      0.00    299.51    300.00     2.491     20.32    0.0    0.0
  JK-R1                    3.27          29      0.00   1031.65   1500.00     0.965     12.11    0.0    0.0
  JK-R2                   10.68          81      0.00   1493.91   1500.00     4.591     30.07    0.0    0.0
  JK-S                     9.87          71      0.00    445.12    450.00     1.261     20.14    0.0    0.0
  XR-1                    97.91           2      0.00     95.00     95.00     2.679      9.60    0.0    0.0
  XR-2                    93.94           2      0.00     95.00     95.00     2.570      8.76    0.0    0.0
  XR-3                     0.00           1      0.00     95.00     95.00     0.000      0.00    0.0    0.0
  XR-4                     0.00           1      0.00     95.00     95.00     0.000      0.00    0.0    0.0
  

  Analysis begun on:  Mon Jul 24 20:28:19 2023
  Analysis ended on:  Mon Jul 24 20:28:58 2023
  Total elapsed time: 00:00:39