
  OWA STORM WATER MANAGEMENT MODEL - VERSION v5.1.14 (OWA 2022-07-31)
  --------------------------------------------------------------

  WARNING 04: minimum elevation drop used for Conduit WS02004404WS02004405
  WARNING 03: negative offset ignored for Link YS02001904YS02001907
  
  *********************************************************
  NOTE: The summary statistics displayed in this report are
  based on results found at every computational time step,  
  not just on results from each reporting time step.
  *********************************************************
  
  ****************
  Analysis Options
  ****************
  Flow Units ............... LPS
  Process Models:
    Rainfall/Runoff ........ YES
    RDII ................... NO
    Snowmelt ............... NO
    Groundwater ............ NO
    Flow Routing ........... YES
    Ponding Allowed ........ NO
    Water Quality .......... NO
  Infiltration Method ...... HORTON
  Flow Routing Method ...... DYNWAVE
  Surcharge Method ......... EXTRAN
  Starting Date ............ 08/28/2015 08:00:00
  Ending Date .............. 08/28/2015 16:00:00
  Antecedent Dry Days ...... 8.0
  Report Time Step ......... 00:01:00
  Wet Time Step ............ 00:01:00
  Dry Time Step ............ 00:01:00
  Routing Time Step ........ 30.00 sec
  Variable Time Step ....... YES
  Maximum Trials ........... 8
  Number of Threads ........ 4
  Head Tolerance ........... 0.001500 m
  
  
  **************************        Volume         Depth
  Runoff Quantity Continuity     hectare-m            mm
  **************************     ---------       -------
  Initial LID Storage ......         0.049         1.488
  Total Precipitation ......         2.992        90.205
  Evaporation Loss .........         0.000         0.000
  Infiltration Loss ........         0.080         2.426
  Surface Runoff ...........         2.255        67.993
  Final Storage ............         0.706        21.291
  Continuity Error (%) .....        -0.019
  
  
  **************************        Volume        Volume
  Flow Routing Continuity        hectare-m      10^6 ltr
  **************************     ---------     ---------
  Dry Weather Inflow .......         0.025         0.251
  Wet Weather Inflow .......         2.255        22.549
  Groundwater Inflow .......         0.000         0.000
  RDII Inflow ..............         0.000         0.000
  External Inflow ..........         0.083         0.834
  External Outflow .........         2.167        21.670
  Flooding Loss ............         0.297         2.970
  Evaporation Loss .........         0.000         0.000
  Exfiltration Loss ........         0.000         0.000
  Initial Stored Volume ....         0.243         2.431
  Final Stored Volume ......         0.180         1.800
  Continuity Error (%) .....        -1.444
  
  
  *************************
  Highest Continuity Errors
  *************************
  Node YS02001583 (-6.46%)
  Node YS02001884 (4.71%)
  Node WS02006256 (-2.22%)
  Node YS02001774 (1.65%)
  Node YS02001658 (-1.03%)
  
  
  ***************************
  Time-Step Critical Elements
  ***************************
  Link WS02006252WS02006251 (23.32%)
  Link WS02004404WS02004405 (17.30%)
  Link WS02006238WS02006235 (16.73%)
  Link YS02001791YS02001793 (10.76%)
  Link WS02006235WS02006234 (8.53%)
  
  
  ********************************
  Highest Flow Instability Indexes
  ********************************
  Link WS02006113WS02006111 (56)
  Link WS02006111WS02006112 (30)
  Link WS02006256WS02006235 (27)
  Link WS02006252WS02006251 (24)
  Link WS02004404WS02004405 (24)
  
  
  *************************
  Routing Time Step Summary
  *************************
  Minimum Time Step           :     0.01 sec
  Average Time Step           :     2.41 sec
  Maximum Time Step           :    30.00 sec
  Percent in Steady State     :    -0.00
  Average Iterations per Step :     3.86
  Percent Not Converging      :    22.49
  
  
  ***************************
  Subcatchment Runoff Summary
  ***************************
  
  ------------------------------------------------------------------------------------------------------------------------------
                            Total      Total      Total      Total     Imperv       Perv      Total       Total     Peak  Runoff
                           Precip      Runon       Evap      Infil     Runoff     Runoff     Runoff      Runoff   Runoff   Coeff
  Subcatchment                 mm         mm         mm         mm         mm         mm         mm    10^6 ltr      LPS
  ------------------------------------------------------------------------------------------------------------------------------
  sub60                     90.21       0.00       0.00       1.45      60.34       6.90      67.24        0.88   210.80   0.745
  sub61                     90.21       0.00       0.00       2.23      60.29      10.30      70.59        1.30   310.24   0.783
  sub62                     90.21       0.00       0.00       0.99      64.27       4.69      68.96        1.89   448.09   0.765
  sub63                     90.21       0.00       0.00       4.08      51.64      17.34      68.97        1.57   373.41   0.765
  sub64                     90.21       0.00       0.00       1.96      58.80       8.58      67.38        1.62   383.93   0.747
  sub65                     90.21       0.00       0.00       1.80      63.47       7.84      71.31        1.96   463.23   0.791
  sub66                     90.21       0.00       0.00       4.69      49.95      16.05      66.00        3.08   676.88   0.732
  sub67                     90.21       0.00       0.00       0.98      65.89       4.84      70.73        1.32   312.88   0.784
  sub68                     90.21       0.00       0.00       1.71      58.19       7.91      66.10        1.82   434.19   0.733
  sub69                     90.21       0.00       0.00       1.59      60.68       9.14      69.82        2.58   600.37   0.774
  sub70                     90.21       0.00       0.00       5.19      48.63      19.92      68.55        1.98   410.29   0.760
  sub71                     90.21       0.00       0.00       0.91      58.39       4.25      62.64        1.64   387.04   0.694
  sub72                     90.21       0.00       0.00       0.87      63.09       3.96      67.05        0.92   215.04   0.743
  

  ***********************
  LID Performance Summary
  ***********************

  --------------------------------------------------------------------------------------------------------------------
                                         Total      Evap     Infil   Surface    Drain    Initial     Final  Continuity
                                        Inflow      Loss      Loss   Outflow   Outflow   Storage   Storage       Error
  Subcatchment      LID Control             mm        mm        mm        mm        mm        mm        mm           %
  --------------------------------------------------------------------------------------------------------------------
  sub60             GreenRoof            90.21      0.00      0.00      0.00      0.00      7.05     97.27       -0.02
  sub61             GreenRoof            90.21      0.00      0.00      0.00      0.00      7.05     97.27       -0.02
  sub62             GreenRoof            90.21      0.00      0.00      0.00      0.00      7.05     97.27       -0.02
  sub63             GreenRoof            90.21      0.00      0.00      0.00      0.00      7.05     97.27       -0.02
  sub64             GreenRoof            90.21      0.00      0.00      0.00      0.00      7.05     97.27       -0.02
  sub65             GreenRoof            90.21      0.00      0.00      0.00      0.00      7.05     97.27       -0.02
  sub66             GreenRoof            90.21      0.00      0.00      0.00      0.00      7.05     97.27       -0.02
  sub67             GreenRoof            90.21      0.00      0.00      0.00      0.00      7.05     97.27       -0.02
  sub68             GreenRoof            90.21      0.00      0.00      0.00      0.00      7.05     97.27       -0.02
  sub69             GreenRoof            90.21      0.00      0.00      0.00      0.00      7.05     97.27       -0.02
  sub70             GreenRoof            90.21      0.00      0.00      0.00      0.00      7.05     97.27       -0.02
  sub71             GreenRoof            90.21      0.00      0.00      0.00      0.00      7.05     97.27       -0.02
  sub72             GreenRoof            90.21      0.00      0.00      0.00      0.00      7.05     97.27       -0.02
  
  ******************
  Node Depth Summary
  ******************
  
  ---------------------------------------------------------------------------------
                                 Average  Maximum  Maximum  Time of Max    Reported
                                   Depth    Depth      HGL   Occurrence   Max Depth
  Node                 Type       Meters   Meters   Meters  days hr:min      Meters
  ---------------------------------------------------------------------------------
  WS02003060           JUNCTION     0.24     0.37     5.30     0  01:48        0.37
  WS02003066           JUNCTION     0.19     0.29     5.84     0  01:47        0.29
  WS02003067           JUNCTION     0.51     0.69     6.01     0  01:47        0.69
  WS02003069           JUNCTION     0.26     0.42     5.00     0  01:49        0.42
  WS02003072           JUNCTION     0.32     0.49     4.86     0  01:49        0.49
  WS02003073           JUNCTION     0.18     0.29     4.35     0  01:50        0.29
  WS02004401           JUNCTION     0.62     0.86     6.86     0  01:45        0.86
  WS02004402           JUNCTION     0.65     0.89     6.85     0  01:45        0.89
  WS02004403           JUNCTION     0.67     0.90     6.83     0  01:45        0.90
  WS02004404           JUNCTION     0.75     0.99     6.84     0  01:45        0.98
  WS02004405           JUNCTION     0.74     0.95     6.80     0  01:45        0.94
  WS02004406           JUNCTION     0.75     0.95     6.78     0  01:45        0.95
  WS02004407           JUNCTION     0.18     0.29     6.60     0  01:46        0.29
  WS02004409           JUNCTION     0.40     0.64     6.41     0  01:46        0.64
  WS02004410           JUNCTION     0.43     0.66     6.38     0  01:46        0.66
  WS02004411           JUNCTION     0.45     0.67     6.35     0  01:47        0.67
  WS02004412           JUNCTION     0.47     0.68     6.32     0  01:47        0.68
  WS02004413           JUNCTION     0.63     0.84     6.31     0  01:47        0.84
  WS02006109           JUNCTION     0.66     1.12     7.74     0  01:40        0.98
  WS02006110           JUNCTION     0.67     1.18     7.76     0  01:40        0.93
  WS02006111           JUNCTION     0.18     0.90     7.60     0  00:00        0.40
  WS02006112           JUNCTION     0.77     2.68     8.56     0  00:00        1.14
  WS02006113           JUNCTION     0.28     1.40     8.29     0  00:00        0.46
  WS02006115           JUNCTION     0.50     1.65     7.79     0  00:00        0.86
  WS02006116           JUNCTION     0.58     1.06     7.10     0  00:00        0.84
  WS02006228           JUNCTION     0.65     1.13     7.78     0  01:40        1.01
  WS02006229           JUNCTION     0.62     1.14     7.84     0  01:39        1.03
  WS02006230           JUNCTION     0.62     1.31     8.05     0  01:39        1.20
  WS02006231           JUNCTION     0.41     1.02     8.14     0  01:39        0.96
  WS02006232           JUNCTION     0.54     1.30     8.34     0  03:29        1.28
  WS02006234           JUNCTION     0.47     1.57     8.73     0  03:29        1.57
  WS02006235           JUNCTION     0.50     1.70     8.86     0  03:29        1.70
  WS02006238           JUNCTION     0.53     1.78     8.93     0  03:29        1.78
  WS02006239           JUNCTION     0.51     1.65     8.86     0  03:29        1.65
  WS02006240           JUNCTION     0.48     1.56     8.86     0  03:29        1.49
  WS02006242           JUNCTION     0.56     1.55     8.82     0  03:29        1.46
  WS02006243           JUNCTION     0.47     1.37     8.79     0  03:29        1.28
  WS02006245           JUNCTION     0.48     1.29     8.78     0  00:05        1.20
  WS02006247           JUNCTION     0.50     1.24     8.74     0  03:29        1.19
  WS02006248           JUNCTION     0.47     1.10     8.69     0  01:40        1.10
  WS02006249           JUNCTION     0.50     1.09     8.69     0  01:28        1.09
  WS02006251           JUNCTION     0.50     1.36     9.03     0  01:28        1.13
  WS02006252           JUNCTION     0.35     1.50     9.74     0  01:08        0.83
  WS02006256           JUNCTION     0.81     2.35     9.28     0  00:00        2.35
  WSF200               JUNCTION     0.17     0.28     5.52     0  01:47        0.28
  YS02001580           JUNCTION     0.17     1.05     9.59     0  01:14        0.80
  YS02001583           JUNCTION     0.20     1.14     9.64     0  01:14        0.82
  YS02001586           JUNCTION     0.31     1.13     9.30     0  01:14        1.13
  YS02001590           JUNCTION     0.41     1.40     9.26     0  01:14        1.39
  YS02001593           JUNCTION     0.36     1.34     9.20     0  01:14        1.29
  YS02001596           JUNCTION     0.48     1.68     9.10     0  01:14        1.67
  YS02001600           JUNCTION     0.57     1.87     9.00     0  01:14        1.87
  YS02001601           JUNCTION     0.73     2.06     8.90     0  01:13        2.06
  YS02001602           JUNCTION     0.64     1.87     8.77     0  01:14        1.87
  YS02001605           JUNCTION     0.59     1.78     8.68     0  02:11        1.78
  YS02001607           JUNCTION     0.56     1.65     8.49     0  01:24        1.64
  YS02001610           JUNCTION     0.59     1.68     8.48     0  01:14        1.68
  YS02001613           JUNCTION     0.56     1.65     8.49     0  01:14        1.65
  YS02001616           JUNCTION     0.50     1.60     8.51     0  01:35        1.60
  YS02001619           JUNCTION     0.48     1.57     8.50     0  01:20        1.56
  YS02001622           JUNCTION     0.47     1.55     8.46     0  01:19        1.55
  YS02001625           JUNCTION     0.69     1.78     8.38     0  01:19        1.78
  YS02001629           JUNCTION     0.60     1.85     8.40     0  01:14        1.85
  YS02001633           JUNCTION     0.66     2.02     8.47     0  01:59        1.96
  YS02001641           JUNCTION     0.62     1.95     8.39     0  01:35        1.95
  YS02001644           JUNCTION     0.60     1.92     8.35     0  01:35        1.92
  YS02001647           JUNCTION     0.41     1.90     8.51     0  01:35        1.90
  YS02001649           JUNCTION     0.47     2.05     8.44     0  01:35        2.05
  YS02001652           JUNCTION     0.36     2.16     8.76     0  01:35        2.16
  YS02001655           JUNCTION     0.27     2.20     9.05     0  01:59        1.46
  YS02001658           JUNCTION     0.18     1.53     8.68     0  01:35        1.02
  YS02001661           JUNCTION     0.16     0.67     8.07     0  01:51        0.65
  YS02001664           JUNCTION     0.07     0.23     8.16     0  01:32        0.23
  YS02001745           JUNCTION     0.07     0.41     7.92     0  01:55        0.36
  YS02001748           JUNCTION     0.17     0.80     7.88     0  01:50        0.80
  YS02001751           JUNCTION     0.23     1.05     7.93     0  01:54        0.99
  YS02001754           JUNCTION     0.32     1.31     7.92     0  01:25        1.25
  YS02001757           JUNCTION     0.49     2.00     8.27     0  01:35        2.00
  YS02001759           JUNCTION     0.43     1.84     8.20     0  01:35        1.84
  YS02001762           JUNCTION     0.42     1.66     8.06     0  01:35        1.66
  YS02001765           JUNCTION     0.40     1.55     8.00     0  01:46        1.53
  YS02001767           JUNCTION     0.39     1.55     8.04     0  01:46        1.52
  YS02001770           JUNCTION     0.40     1.60     8.10     0  01:46        1.53
  YS02001774           JUNCTION     0.45     1.69     8.11     0  01:46        1.61
  YS02001779           JUNCTION     0.30     1.44     8.13     0  01:46        1.34
  YS02001783           JUNCTION     0.31     1.23     7.37     0  01:21        1.21
  YS02001784           JUNCTION     0.31     1.11     7.18     0  01:21        1.11
  YS02001786           JUNCTION     0.26     0.87     6.90     0  01:21        0.86
  YS02001788           JUNCTION     0.19     0.62     6.59     0  01:29        0.62
  YS02001790           JUNCTION     0.22     0.72     6.36     0  01:35        0.72
  YS02001791           JUNCTION     0.14     0.43     5.90     0  01:37        0.43
  YS02001793           JUNCTION     0.07     0.30     5.13     0  01:26        0.27
  YS02001882           JUNCTION     0.38     1.61     8.32     0  01:21        1.60
  YS02001884           JUNCTION     0.46     1.70     8.32     0  01:21        1.69
  YS02001887           JUNCTION     0.53     1.78     8.31     0  01:21        1.77
  YS02001890           JUNCTION     0.56     1.79     8.30     0  01:21        1.79
  YS02001895           JUNCTION     0.35     1.55     8.30     0  01:32        1.55
  YS02001898           JUNCTION     0.36     1.54     8.28     0  01:21        1.54
  YS02001901           JUNCTION     0.46     1.66     8.27     0  01:22        1.66
  YS02001904           JUNCTION     0.44     1.63     8.26     0  01:32        1.63
  YS02001907           JUNCTION     0.72     1.96     8.25     0  01:21        1.96
  YS02001910           JUNCTION     0.55     1.79     8.30     0  01:23        1.78
  YS02001915           JUNCTION     0.38     1.62     8.34     0  01:23        1.61
  YS02001918           JUNCTION     0.23     1.31     8.37     0  01:22        1.29
  YS02001920           JUNCTION     0.30     1.50     8.50     0  01:19        1.36
  YS02001923           JUNCTION     0.17     1.15     8.41     0  01:22        1.12
  YS02001926           JUNCTION     0.19     0.99     8.44     0  01:22        0.96
  YS02001929           JUNCTION     0.11     0.74     8.44     0  01:22        0.69
  YS02006553           JUNCTION     0.72     1.96     8.25     0  01:32        1.96
  YS02006556           JUNCTION     0.70     1.91     8.23     0  01:21        1.91
  YS02006558           JUNCTION     0.74     1.95     8.22     0  01:21        1.94
  YS02006561           JUNCTION     0.19     0.90     7.56     0  01:21        0.86
  YS02163301           JUNCTION     0.62     1.92     8.44     0  01:59        1.89
  YS02163601           JUNCTION     0.68     2.04     8.44     0  01:59        1.97
  YS02164001           JUNCTION     0.61     1.97     8.43     0  01:59        1.92
  CC-1                 OUTFALL      0.00     0.00     0.00     0  00:00        0.00
  CC-2                 OUTFALL      0.00     0.00     0.00     0  00:00        0.00
  JK-1                 OUTFALL      0.00     0.00     0.00     0  00:00        0.00
  JK-2                 OUTFALL      0.00     0.00     0.00     0  00:00        0.00
  WSC                  OUTFALL      0.18     0.29     0.96     0  01:50        0.29
  CC-storage           STORAGE      0.92     1.71     7.21     0  02:15        1.71
  JK-storage           STORAGE      1.28     4.24     5.04     0  01:26        4.22
  
  
  *******************
  Node Inflow Summary
  *******************
  
  -------------------------------------------------------------------------------------------------
                                  Maximum  Maximum                  Lateral       Total        Flow
                                  Lateral    Total  Time of Max      Inflow      Inflow     Balance
                                   Inflow   Inflow   Occurrence      Volume      Volume       Error
  Node                 Type           LPS      LPS  days hr:min    10^6 ltr    10^6 ltr     Percent
  -------------------------------------------------------------------------------------------------
  WS02003060           JUNCTION     16.53   523.04     0  01:48       0.476        5.71       0.036
  WS02003066           JUNCTION      0.00   505.34     0  01:47           0        5.24       0.024
  WS02003067           JUNCTION      0.00   504.83     0  01:47           0        5.24       0.076
  WS02003069           JUNCTION      0.32   523.62     0  01:48     0.00922        5.72       0.061
  WS02003072           JUNCTION      0.00   521.72     0  01:49           0        5.72       0.113
  WS02003073           JUNCTION      1.82   521.81     0  01:50      0.0524        5.76       0.086
  WS02004401           JUNCTION      0.00  1697.33     0  00:00           0        5.34       0.205
  WS02004402           JUNCTION      0.00  1210.03     0  00:01           0        5.33       0.199
  WS02004403           JUNCTION      0.00   817.89     0  00:01           0        5.32       0.192
  WS02004404           JUNCTION      0.16   816.53     0  00:01     0.00467        5.31       0.169
  WS02004405           JUNCTION      0.04   789.03     0  00:01      0.0011        5.31       0.195
  WS02004406           JUNCTION      0.00   724.33     0  00:02           0         5.3       0.400
  WS02004407           JUNCTION      0.00   523.12     0  01:45           0        5.27       0.016
  WS02004409           JUNCTION      0.00   522.31     0  01:46           0        5.27       0.043
  WS02004410           JUNCTION      0.00   515.91     0  01:46           0        5.27       0.078
  WS02004411           JUNCTION      0.00   512.61     0  01:46           0        5.27       0.100
  WS02004412           JUNCTION      0.00   509.57     0  01:47           0        5.26       0.134
  WS02004413           JUNCTION      0.00   506.48     0  01:47           0        5.26       0.246
  WS02006109           JUNCTION      1.23  1308.01     0  00:00      0.0354        5.27       0.059
  WS02006110           JUNCTION      0.00   552.17     0  01:40           0        5.24      -0.701
  WS02006111           JUNCTION      0.00  1176.04     0  00:00           0        5.27      -0.734
  WS02006112           JUNCTION      0.00  2307.30     0  00:00           0        5.31      -0.011
  WS02006113           JUNCTION      0.00   566.62     0  01:40           0        5.23      -0.950
  WS02006115           JUNCTION      0.00   898.70     0  00:00           0        5.28      -0.614
  WS02006116           JUNCTION      0.00  1144.85     0  00:01           0        5.32      -0.475
  WS02006228           JUNCTION      0.00   551.50     0  01:40           0        5.21       0.036
  WS02006229           JUNCTION      0.00   552.39     0  01:40           0        5.19       0.147
  WS02006230           JUNCTION     10.28   585.55     0  03:38       0.296        5.17      -0.013
  WS02006231           JUNCTION      0.00   582.11     0  01:39           0        4.87       0.024
  WS02006232           JUNCTION      0.00   580.78     0  01:39           0        4.87       0.079
  WS02006234           JUNCTION      0.00   574.98     0  01:39           0        4.87      -0.111
  WS02006235           JUNCTION      0.00   564.37     0  01:39           0        4.91       0.081
  WS02006238           JUNCTION      0.00   425.97     0  01:29           0         4.6      -0.186
  WS02006239           JUNCTION      0.00   425.42     0  01:29           0        4.57      -0.192
  WS02006240           JUNCTION      0.00   422.78     0  01:29           0        4.54      -0.057
  WS02006242           JUNCTION      0.00   422.33     0  01:29           0        4.53      -0.124
  WS02006243           JUNCTION      0.00   422.10     0  01:29           0        4.52      -0.291
  WS02006245           JUNCTION      0.00   423.05     0  03:39           0        4.53       0.317
  WS02006247           JUNCTION      0.00   423.60     0  03:39           0        4.53      -0.042
  WS02006248           JUNCTION      0.00   424.43     0  03:28           0        4.53      -0.050
  WS02006249           JUNCTION      0.00   793.83     0  00:00           0        4.57       0.336
  WS02006251           JUNCTION      0.08   453.22     0  00:00     0.00222        4.56      -0.265
  WS02006252           JUNCTION      0.00   400.00     0  00:00           0        4.52      -0.696
  WS02006256           JUNCTION      0.00   300.00     0  00:00           0       0.427      -2.173
  WSF200               JUNCTION      0.00   505.49     0  01:47           0        5.24       0.007
  YS02001580           JUNCTION      0.00    94.12     0  01:14           0     0.00417       1.055
  YS02001583           JUNCTION      0.00   134.72     0  01:13           0      0.0152      -6.066
  YS02001586           JUNCTION    410.29   410.59     0  01:35        1.98        1.99       0.077
  YS02001590           JUNCTION      0.00   318.72     0  01:59           0        1.84      -0.036
  YS02001593           JUNCTION      0.00   318.22     0  01:59           0        1.84       0.002
  YS02001596           JUNCTION      0.00   318.10     0  01:50           0        1.84      -0.035
  YS02001600           JUNCTION      0.00   318.09     0  01:35           0        1.84       0.006
  YS02001601           JUNCTION    600.37   918.18     0  01:32        2.58        4.43       0.007
  YS02001602           JUNCTION      0.00   558.71     0  01:13           0        3.01       0.004
  YS02001605           JUNCTION      0.00   558.50     0  01:13           0        2.82       0.008
  YS02001607           JUNCTION      0.00   558.22     0  01:13           0        2.82       0.057
  YS02001610           JUNCTION      0.00   546.42     0  01:14           0        2.82       0.078
  YS02001613           JUNCTION      0.00   554.02     0  01:14           0        2.46       0.067
  YS02001616           JUNCTION      0.00   557.95     0  01:14           0        2.47       0.016
  YS02001619           JUNCTION    676.88   925.83     0  01:14        3.08        5.54      -0.002
  YS02001622           JUNCTION      0.00   921.67     0  01:14           0        5.53      -0.010
  YS02001625           JUNCTION      0.00   925.70     0  01:14           0        5.53       0.192
  YS02001629           JUNCTION      0.00   926.42     0  01:14           0        5.04      -0.007
  YS02001633           JUNCTION    463.43  1334.72     0  01:19        1.97        7.02       0.040
  YS02001641           JUNCTION      0.00  1335.40     0  01:19           0        7.02       0.037
  YS02001644           JUNCTION    383.97  1686.74     0  01:19        1.62        8.63       0.034
  YS02001647           JUNCTION      0.00  1687.24     0  01:19           0        8.61      -0.003
  YS02001649           JUNCTION      0.00  2002.44     0  01:18           0        10.2       0.022
  YS02001652           JUNCTION      0.00   468.87     0  01:35           0        1.59       0.006
  YS02001655           JUNCTION      0.15   559.02     0  01:23     0.00443        1.58      -0.681
  YS02001658           JUNCTION      0.00   806.13     0  01:35           0        1.61      -1.015
  YS02001661           JUNCTION      0.00   480.67     0  01:51           0        1.61       0.147
  YS02001664           JUNCTION    373.41   373.41     0  01:32        1.57        1.57      -0.011
  YS02001745           JUNCTION    210.81   210.81     0  01:31       0.883       0.884       0.186
  YS02001748           JUNCTION      0.04   354.80     0  01:45      0.0013       0.884      -0.221
  YS02001751           JUNCTION      0.01   328.40     0  01:22    0.000317       0.887       0.053
  YS02001754           JUNCTION      0.26   349.72     0  01:25     0.00749       0.894      -0.352
  YS02001757           JUNCTION      0.00  2820.29     0  01:19           0        14.3       0.033
  YS02001759           JUNCTION    310.28   798.17     0  01:22         1.3        3.21      -0.024
  YS02001762           JUNCTION      0.00   495.26     0  01:22           0        1.91      -0.001
  YS02001765           JUNCTION      0.00   492.69     0  01:22           0        1.91       0.023
  YS02001767           JUNCTION      0.54   479.21     0  01:22      0.0154        1.91       0.005
  YS02001770           JUNCTION    448.25   484.71     0  01:22        1.89        1.95      -0.016
  YS02001774           JUNCTION      0.00   136.96     0  01:20           0      0.0843       1.681
  YS02001779           JUNCTION      0.01    89.47     0  01:19    0.000144      0.0289      -0.475
  YS02001783           JUNCTION      0.00  1142.48     0  01:26           0        5.54       0.006
  YS02001784           JUNCTION      1.06  1143.66     0  01:26      0.0305        5.57       0.008
  YS02001786           JUNCTION      0.06  1143.26     0  01:26     0.00162        5.57       0.012
  YS02001788           JUNCTION      0.07  1144.01     0  01:22     0.00204        5.58       0.007
  YS02001790           JUNCTION      0.15  1157.75     0  01:26     0.00446        5.58       0.017
  YS02001791           JUNCTION      0.00  1270.67     0  01:35           0        5.58      -0.021
  YS02001793           JUNCTION      0.00  1223.40     0  01:32           0        5.58       0.005
  YS02001882           JUNCTION      0.00    63.55     0  01:16           0      0.0155       4.222
  YS02001884           JUNCTION      0.00   110.32     0  01:11           0      0.0526       4.947
  YS02001887           JUNCTION    313.33   317.86     0  01:17        1.33        1.36       0.321
  YS02001890           JUNCTION      0.00   320.50     0  01:17           0        1.32       0.384
  YS02001895           JUNCTION      0.00   322.72     0  01:17           0        1.32       0.205
  YS02001898           JUNCTION      0.00   325.92     0  01:17           0        1.31      -0.045
  YS02001901           JUNCTION      0.00   332.28     0  01:17           0        1.32       0.266
  YS02001904           JUNCTION      0.00   331.29     0  01:17           0        1.33       0.196
  YS02001907           JUNCTION      0.00   991.87     0  01:23           0        3.98       0.444
  YS02001910           JUNCTION      0.00   681.82     0  01:23           0        2.64       0.262
  YS02001915           JUNCTION    387.06   681.14     0  01:23        1.64        2.65       0.059
  YS02001918           JUNCTION      0.00   305.06     0  01:23           0        1.01       0.032
  YS02001920           JUNCTION      2.87   304.27     0  01:23      0.0827        1.01       0.091
  YS02001923           JUNCTION      0.04   351.74     0  01:23     0.00109       0.924      -0.021
  YS02001926           JUNCTION      0.05   278.16     0  01:22      0.0015       0.923       0.039
  YS02001929           JUNCTION    215.04   215.04     0  01:33       0.922       0.922      -0.009
  YS02006553           JUNCTION      0.00   779.18     0  01:43           0        3.77       0.310
  YS02006556           JUNCTION      0.00   778.68     0  01:44           0        3.79       0.208
  YS02006558           JUNCTION    435.07  1143.40     0  01:26        1.84        5.59       0.071
  YS02006561           JUNCTION      0.00  1142.60     0  01:26           0        5.54      -0.008
  YS02163301           JUNCTION      0.00   919.34     0  01:19           0        5.05       0.027
  YS02163601           JUNCTION      0.11  1334.92     0  01:19     0.00317           7       0.066
  YS02164001           JUNCTION      0.00  1335.28     0  01:19           0        7.01       0.034
  CC-1                 OUTFALL       0.00   683.00     0  00:31           0        6.06       0.000
  CC-2                 OUTFALL       0.00   683.00     0  00:20           0        4.59       0.000
  JK-1                 OUTFALL       0.00  1000.00     0  00:21           0        2.46       0.000
  JK-2                 OUTFALL       0.00  1000.00     0  00:05           0        2.81       0.000
  WSC                  OUTFALL       0.00   519.82     0  01:50           0        5.76       0.000
  CC-storage           STORAGE       0.00  2759.89     0  01:22           0        16.5      -0.193
  JK-storage           STORAGE       0.00  1224.53     0  01:32           0        5.73      -0.283
  
  
  **********************
  Node Surcharge Summary
  **********************
  
  Surcharging occurs when water rises above the top of the highest conduit.
  ---------------------------------------------------------------------
                                               Max. Height   Min. Depth
                                   Hours       Above Crown    Below Rim
  Node                 Type      Surcharged         Meters       Meters
  ---------------------------------------------------------------------
  WS02006109           JUNCTION        2.28          0.301        1.519
  WS02006110           JUNCTION        0.07          0.270        1.580
  WS02006111           JUNCTION        0.01          0.087        1.783
  WS02006112           JUNCTION        0.09          1.680        0.000
  WS02006113           JUNCTION        0.01          0.600        1.330
  WS02006115           JUNCTION        0.01          0.642        1.608
  WS02006116           JUNCTION        0.01          0.000        2.290
  WS02006228           JUNCTION        2.27          0.296        1.904
  WS02006229           JUNCTION        2.28          0.342        2.108
  WS02006230           JUNCTION        0.07          0.225        1.345
  WS02006231           JUNCTION        0.10          0.307        1.223
  WS02006232           JUNCTION        2.37          0.598        0.882
  WS02006234           JUNCTION        0.32          0.855        0.385
  WS02006235           JUNCTION        2.29          0.991        0.299
  WS02006238           JUNCTION        2.33          1.063        0.367
  WS02006239           JUNCTION        2.29          0.906        0.384
  WS02006240           JUNCTION        2.30          0.853        0.537
  WS02006242           JUNCTION        2.42          0.820        0.000
  WS02006243           JUNCTION        2.30          0.661        0.109
  WS02006245           JUNCTION        2.29          0.583        0.267
  WS02006247           JUNCTION        2.31          0.529        0.231
  WS02006248           JUNCTION        2.27          0.380        0.000
  WS02006249           JUNCTION        2.29          0.390        0.000
  WS02006251           JUNCTION        0.13          0.326        0.854
  WS02006252           JUNCTION        2.93          1.100        0.000
  WS02006256           JUNCTION        5.66          2.050        0.000
  YS02001580           JUNCTION        0.99          0.450        0.000
  YS02001583           JUNCTION        1.01          0.500        0.000
  YS02001586           JUNCTION        1.31          0.510        0.000
  YS02001590           JUNCTION        1.40          0.750        0.000
  YS02001593           JUNCTION        1.40          0.721        0.119
  YS02001596           JUNCTION        1.54          0.954        0.116
  YS02001600           JUNCTION        1.84          1.190        0.000
  YS02001601           JUNCTION        2.03          1.440        0.000
  YS02001602           JUNCTION        1.98          1.270        0.000
  YS02001605           JUNCTION        1.95          1.180        0.000
  YS02001607           JUNCTION        1.38          0.646        0.034
  YS02001610           JUNCTION        1.41          0.680        0.000
  YS02001613           JUNCTION        1.38          0.653        0.047
  YS02001616           JUNCTION        1.34          0.598        0.012
  YS02001619           JUNCTION        1.32          0.566        0.044
  YS02001622           JUNCTION        1.32          0.555        0.065
  YS02001625           JUNCTION        1.54          0.780        0.000
  YS02001629           JUNCTION        1.27          0.470        0.000
  YS02001633           JUNCTION        1.58          0.998        0.062
  YS02001641           JUNCTION        1.51          0.951        0.149
  YS02001644           JUNCTION        1.49          0.920        0.000
  YS02001647           JUNCTION        1.21          0.900        0.000
  YS02001649           JUNCTION        1.35          1.050        0.000
  YS02001652           JUNCTION        1.06          1.130        0.000
  YS02001655           JUNCTION        0.39          1.200        0.000
  YS02001658           JUNCTION        0.02          0.533        0.767
  YS02001751           JUNCTION        0.01          0.049        1.151
  YS02001754           JUNCTION        0.80          0.261        0.889
  YS02001757           JUNCTION        1.45          1.004        0.206
  YS02001759           JUNCTION        1.30          0.836        0.374
  YS02001762           JUNCTION        1.26          0.657        0.493
  YS02001765           JUNCTION        1.21          0.554        0.546
  YS02001767           JUNCTION        1.17          0.553        0.477
  YS02001770           JUNCTION        1.14          0.570        0.350
  YS02001774           JUNCTION        1.25          0.688        0.362
  YS02001779           JUNCTION        0.80          0.441        0.239
  YS02001783           JUNCTION        0.80          0.429        1.171
  YS02001784           JUNCTION        0.76          0.310        1.180
  YS02001786           JUNCTION        0.54          0.071        1.359
  YS02001882           JUNCTION        0.71          0.606        0.224
  YS02001884           JUNCTION        0.72          0.642        0.228
  YS02001887           JUNCTION        0.78          0.726        0.224
  YS02001890           JUNCTION        0.80          0.744        0.016
  YS02001895           JUNCTION        0.69          0.554        0.196
  YS02001898           JUNCTION        0.67          0.514        0.226
  YS02001901           JUNCTION        0.76          0.664        0.206
  YS02001904           JUNCTION        0.75          0.632        0.218
  YS02001907           JUNCTION        1.12          0.950        0.000
  YS02001910           JUNCTION        0.85          0.793        0.307
  YS02001915           JUNCTION        0.70          0.620        0.380
  YS02001918           JUNCTION        0.49          0.308        0.502
  YS02001920           JUNCTION        0.54          0.497        0.643
  YS02006553           JUNCTION        1.21          0.965        0.225
  YS02006556           JUNCTION        1.00          0.875        0.475
  YS02006558           JUNCTION        0.98          0.850        0.550
  YS02006561           JUNCTION        0.41          0.096        1.054
  YS02163301           JUNCTION        1.55          0.925        0.105
  YS02163601           JUNCTION        1.62          1.042        0.038
  YS02164001           JUNCTION        1.52          0.968        0.132
  
  
  *********************
  Node Flooding Summary
  *********************
  
  Flooding refers to all water that overflows a node, whether it ponds or not.
  --------------------------------------------------------------------------
                                                             Total   Maximum
                                 Maximum   Time of Max       Flood    Ponded
                        Hours       Rate    Occurrence      Volume     Depth
  Node                 Flooded       LPS   days hr:min    10^6 ltr    Meters
  --------------------------------------------------------------------------
  WS02006112              0.01   1547.89      0  00:00       0.047     0.000
  WS02006242              0.01      6.76      0  03:29       0.000     0.000
  WS02006248              0.01     24.01      0  03:29       0.000     0.000
  WS02006249              0.11     96.39      0  01:28       0.024     0.000
  WS02006252              0.01    264.48      0  01:12       0.001     0.000
  WS02006256              0.39    288.78      0  03:48       0.122     0.000
  YS02001580              0.01     20.15      0  01:14       0.000     0.000
  YS02001583              0.01     58.93      0  01:14       0.000     0.000
  YS02001586              0.69     93.12      0  01:35       0.136     0.000
  YS02001590              0.01      3.99      0  01:14       0.000     0.000
  YS02001600              0.01      2.37      0  01:14       0.000     0.000
  YS02001601              1.20    520.33      0  01:32       1.414     0.000
  YS02001602              0.94     62.09      0  02:04       0.189     0.000
  YS02001605              0.01      0.21      0  02:11       0.000     0.000
  YS02001610              0.80    205.66      0  01:35       0.364     0.000
  YS02001625              0.76    360.46      0  01:36       0.485     0.000
  YS02001629              0.02     79.61      0  01:14       0.000     0.000
  YS02001644              0.01      7.36      0  01:59       0.000     0.000
  YS02001647              0.01     11.04      0  01:35       0.000     0.000
  YS02001649              0.01     42.60      0  01:35       0.000     0.000
  YS02001652              0.01     27.12      0  01:35       0.000     0.000
  YS02001655              0.01    296.94      0  01:59       0.000     0.000
  YS02001907              0.35    276.82      0  01:23       0.203     0.000
  
  
  **********************
  Storage Volume Summary
  **********************
  
  --------------------------------------------------------------------------------------------------
                         Average     Avg  Evap Exfil       Maximum     Max    Time of Max    Maximum
                          Volume    Pcnt  Pcnt  Pcnt        Volume    Pcnt     Occurrence    Outflow
  Storage Unit           1000 m3    Full  Loss  Loss       1000 m3    Full    days hr:min        LPS
  --------------------------------------------------------------------------------------------------
  CC-storage               2.570      40     0     0         4.771      74       0  02:15    1766.00
  JK-storage               0.064      22     0     0         0.213      73       0  01:26    2300.00
  
  
  ***********************
  Outfall Loading Summary
  ***********************
  
  -----------------------------------------------------------
                         Flow       Avg       Max       Total
                         Freq      Flow      Flow      Volume
  Outfall Node           Pcnt       LPS       LPS    10^6 ltr
  -----------------------------------------------------------
  CC-1                  37.68    683.00    683.00       6.060
  CC-2                  33.84    683.00    683.00       4.587
  JK-1                  13.77   1000.00   1000.00       2.458
  JK-2                  12.67   1000.00   1000.00       2.808
  WSC                   99.99    246.21    519.82       5.757
  -----------------------------------------------------------
  System                39.59   3612.21    519.82      21.670
  
  
  ********************
  Link Flow Summary
  ********************
  
  -----------------------------------------------------------------------------
                                 Maximum  Time of Max   Maximum    Max/    Max/
                                  |Flow|   Occurrence   |Veloc|    Full    Full
  Link                 Type          LPS  days hr:min     m/sec    Flow   Depth
  -----------------------------------------------------------------------------
  1                    CONDUIT    519.82     0  01:50      2.77    0.18    0.29
  WS02003060WS02003069 CONDUIT    523.30     0  01:48      1.62    0.20    0.33
  WS02003066WSF200     CONDUIT    505.49     0  01:47      2.81    0.09    0.22
  WS02003067WS02003066 CONDUIT    505.34     0  01:47      1.17    0.16    0.41
  WS02003069WS02003072 CONDUIT    521.72     0  01:49      1.35    0.25    0.38
  WS02003072WS02003073 CONDUIT    519.99     0  01:50      1.40    1.12    0.36
  WS02004401WS02004402 CONDUIT   1210.03     0  00:01      2.53    1.45    0.87
  WS02004402WS02004403 CONDUIT    817.89     0  00:01      2.15    1.18    0.89
  WS02004403WS02004404 CONDUIT    816.37     0  00:01      1.91    0.59    0.94
  WS02004404WS02004405 CONDUIT    788.99     0  00:01      2.33    7.73    0.96
  WS02004405WS02004406 CONDUIT    724.33     0  00:02      2.23    1.43    0.95
  WS02004406WS02004407 CONDUIT    523.12     0  01:45      1.02    0.23    0.62
  WS02004407WS02004409 CONDUIT    522.31     0  01:46      1.93    0.19    0.47
  WS02004409WS02004410 CONDUIT    515.91     0  01:46      1.29    0.67    0.65
  WS02004410WS02004411 CONDUIT    512.61     0  01:46      1.20    0.70    0.66
  WS02004411WS02004412 CONDUIT    509.57     0  01:47      1.14    0.72    0.67
  WS02004412WS02004413 CONDUIT    506.48     0  01:47      1.15    0.34    0.76
  WS02004413WS02003067 CONDUIT    504.83     0  01:47      1.07    0.22    0.58
  WS02006109WS02006110 CONDUIT   1306.78     0  00:00      3.14    2.51    1.00
  WS02006110WS02006113 CONDUIT    566.62     0  01:40      1.37    0.52    1.00
  WS02006111WS02006112 CONDUIT   2307.30     0  00:00      9.18    1.10    0.91
  WS02006112WS02006115 CONDUIT    898.70     0  00:00      1.15    0.53    1.00
  WS02006113WS02006111 CONDUIT   1176.04     0  00:00      2.46    1.41    1.00
  WS02006115WS02006116 CONDUIT   1144.85     0  00:01      1.76    1.47    1.00
  WS02006116WS02004401 CONDUIT   1697.33     0  00:00      3.01    2.34    0.85
  WS02006228WS02006109 CONDUIT    551.59     0  01:40      1.40    2.41    1.00
  WS02006229WS02006228 CONDUIT    551.50     0  01:40      1.25    1.83    1.00
  WS02006230WS02006229 CONDUIT    552.39     0  01:40      1.44   12.29    1.00
  WS02006231WS02006230 CONDUIT    575.27     0  03:38      1.55    8.73    1.00
  WS02006232WS02006231 CONDUIT    582.11     0  01:39      1.53    1.22    1.00
  WS02006234WS02006232 CONDUIT    580.78     0  01:39      1.51    1.17    1.00
  WS02006235WS02006234 CONDUIT    574.98     0  01:39      1.59    6.07    1.00
  WS02006238WS02006235 CONDUIT    442.79     0  03:29      1.48    0.99    1.00
  WS02006239WS02006238 CONDUIT    425.97     0  01:29      1.11    1.36    1.00
  WS02006240WS02006239 CONDUIT    425.42     0  01:29      1.15    1.34    1.00
  WS02006242WS02006240 CONDUIT    422.78     0  01:29      1.10    1.68    1.00
  WS02006243WS02006242 CONDUIT    422.33     0  01:29      1.33    0.90    1.00
  WS02006245WS02006243 CONDUIT    422.10     0  01:29      1.46    1.25    1.00
  WS02006247WS02006245 CONDUIT    423.05     0  03:39      1.46    3.35    1.00
  WS02006248WS02006247 CONDUIT    423.60     0  03:39      1.50    0.92    1.00
  WS02006249WS02006248 CONDUIT    424.43     0  03:28      1.44    2.33    1.00
  WS02006251WS02006249 CONDUIT    793.83     0  00:00      2.76    2.29    1.00
  WS02006252WS02006251 CONDUIT    453.14     0  00:00     25.84    1.66    1.00
  WS02006256WS02006235 CONDUIT    288.76     0  00:01      4.23    3.06    1.00
  WSF200WS02003060     CONDUIT    506.51     0  01:48      2.03    0.11    0.27
  YS02001580YS02001583 CONDUIT     94.12     0  01:14      0.62    0.36    1.00
  YS02001583YS02001586 CONDUIT    130.48     0  01:13      0.55    0.20    1.00
  YS02001586YS02001590 CONDUIT    318.72     0  01:59      1.28    0.56    1.00
  YS02001590YS02001593 CONDUIT    318.22     0  01:59      1.13    2.00    1.00
  YS02001593YS02001596 CONDUIT    318.10     0  01:50      1.72    0.50    1.00
  YS02001596YS02001600 CONDUIT    318.09     0  01:35      1.22    0.62    1.00
  YS02001600YS02001601 CONDUIT    318.37     0  01:59      1.13    0.55    1.00
  YS02001601YS02001602 CONDUIT    558.71     0  01:13      1.98    2.02    1.00
  YS02001602YS02001605 CONDUIT    558.50     0  01:13      1.98   11.82    1.00
  YS02001605YS02001607 CONDUIT    558.22     0  01:13      1.97    3.06    1.00
  YS02001607YS02001610 CONDUIT    546.42     0  01:14      0.77    0.52    1.00
  YS02001610YS02001613 CONDUIT    554.02     0  01:14      0.73    0.64    1.00
  YS02001613YS02001616 CONDUIT    557.95     0  01:14      0.79    0.48    1.00
  YS02001616YS02001619 CONDUIT    529.78     0  01:14      0.82    0.92    1.00
  YS02001619YS02001622 CONDUIT    921.67     0  01:14      1.73    1.36    1.00
  YS02001622YS02001625 CONDUIT    925.70     0  01:14      1.18    0.49    1.00
  YS02001625YS02001629 CONDUIT    926.42     0  01:14      1.18    0.44    1.00
  YS02001629YS02163301 CONDUIT    919.34     0  01:19      1.17    1.13    1.00
  YS02001633YS02163601 CONDUIT   1334.81     0  01:19      1.70    1.40    1.00
  YS02001641YS02001644 CONDUIT   1335.28     0  01:19      1.70    4.32    1.00
  YS02001644YS02001647 CONDUIT   1687.24     0  01:19      2.19    0.99    1.00
  YS02001647YS02001649 CONDUIT   1699.85     0  01:19      2.38    0.90    1.00
  YS02001649YS02001757 CONDUIT   1964.13     0  01:20      2.61    1.19    1.00
  YS02001652YS02001649 CONDUIT    471.33     0  01:35      1.32    0.23    1.00
  YS02001655YS02001652 CONDUIT    468.87     0  01:35      1.74    0.23    1.00
  YS02001658YS02001655 CONDUIT    558.86     0  01:23      1.94    0.24    1.00
  YS02001661YS02001658 CONDUIT    806.13     0  01:35      2.19    0.32    0.67
  YS02001664YS02001661 CONDUIT    373.39     0  01:32      2.04    0.12    0.45
  YS02001745YS02001748 CONDUIT    354.76     0  01:45      1.98    0.14    0.51
  YS02001748YS02001751 CONDUIT    306.34     0  01:37      1.64    0.15    0.89
  YS02001751YS02001754 CONDUIT    349.46     0  01:25      1.58    0.17    1.00
  YS02001754YS02001757 CONDUIT    287.22     0  01:40      1.04    0.12    1.00
  YS02001757CaochengTiaoxuchi CONDUIT   2759.89     0  01:22      3.87    1.19    1.00
  YS02001759YS02001757 CONDUIT    794.83     0  01:22      1.30    0.56    1.00
  YS02001762YS02001759 CONDUIT    494.68     0  01:22      0.73    0.57    1.00
  YS02001765YS02001762 CONDUIT    495.26     0  01:22      0.85    0.46    1.00
  YS02001767YS02001765 CONDUIT    492.69     0  01:22      0.95    0.62    1.00
  YS02001770YS02001767 CONDUIT    478.67     0  01:22      0.91    1.90    1.00
  YS02001774YS02001770 CONDUIT    136.96     0  01:20      0.72    0.09    1.00
  YS02001779YS02001774 CONDUIT     89.47     0  01:19      0.19    0.05    1.00
  YS02001783YS02001784 CONDUIT   1142.60     0  01:26      2.27    1.58    1.00
  YS02001784YS02001785 CONDUIT   1143.20     0  01:26      2.27    2.66    1.00
  YS02001786YS02001788 CONDUIT   1143.93     0  01:22      2.45    2.20    0.88
  YS02001788YS02001790 CONDUIT   1157.59     0  01:26      2.70    0.85    0.83
  YS02001790YS02001791 CONDUIT   1270.67     0  01:35      3.42    1.38    0.70
  YS02001791YS02001793 CONDUIT   1223.40     0  01:32      6.76    0.53    0.44
  YS02001793JiankangQianchi CONDUIT   1224.53     0  01:32      2.46    0.10    0.65
  YS02001882YS02001884 CONDUIT     63.55     0  01:16      0.40    0.07    1.00
  YS02001884YS02001887 CONDUIT    110.32     0  01:11      0.35    0.15    1.00
  YS02001887YS02001890 CONDUIT    320.50     0  01:17      0.41    0.55    1.00
  YS02001890YS02001895 CONDUIT    322.72     0  01:17      0.43    0.15    1.00
  YS02001895YS02001898 CONDUIT    325.92     0  01:17      0.70    0.57    1.00
  YS02001898YS02001901 CONDUIT    332.28     0  01:17      0.57    0.21    1.00
  YS02001901YS02001904 CONDUIT    331.29     0  01:17      0.63    0.51    1.00
  YS02001904YS02001907 CONDUIT    328.48     0  01:17      0.42    0.11    1.00
  YS02001907YS02006553 CONDUIT    779.18     0  01:43      0.87    0.92    1.00
  YS02001910YS02001907 CONDUIT    681.64     0  01:23      0.87    0.38    1.00
  YS02001915YS02001910 CONDUIT    681.82     0  01:23      1.13    0.34    1.00
  YS02001918YS02001915 CONDUIT    305.82     0  01:23      0.44    0.17    1.00
  YS02001920YS02001918 CONDUIT    305.06     0  01:23      0.73    0.30    1.00
  YS02001923YS02001920 CONDUIT    301.40     0  01:23      0.82    0.14    1.00
  YS02001926YS02001923 CONDUIT    351.71     0  01:23      0.95    0.50    0.95
  YS02001929YS02001926 CONDUIT    278.11     0  01:22      1.06    0.13    0.84
  YS02006553YS02006556 CONDUIT    778.68     0  01:44      0.99    0.67    1.00
  YS02006556YS02006558 CONDUIT    779.67     0  01:43      0.99    0.62    1.00
  YS02006558YS02006561 CONDUIT   1142.60     0  01:26      4.04    2.53    1.00
  YS02006561YS02001783 CONDUIT   1142.48     0  01:26      2.27    0.59    1.00
  YS02163301YS02001633 CONDUIT    919.25     0  01:19      1.17    0.86    1.00
  YS02163601YS02164001 CONDUIT   1335.28     0  01:19      1.70    1.18    1.00
  YS02164001YS02001641 CONDUIT   1335.40     0  01:19      1.70    1.82    1.00
  CC-R1                PUMP       683.00     0  00:31              1.00
  CC-R2                PUMP       683.00     0  00:20              1.00
  CC-S1                PUMP       200.00     0  00:00              1.00
  CC-S2                PUMP       200.00     0  00:00              1.00
  JK-R1                PUMP      1000.00     0  00:21              1.00
  JK-R2                PUMP      1000.00     0  00:05              1.00
  JK-S                 PUMP       300.00     0  00:00              1.00
  
  
  ***************************
  Flow Classification Summary
  ***************************
  
  -------------------------------------------------------------------------------------
                      Adjusted    ---------- Fraction of Time in Flow Class ---------- 
                       /Actual         Up    Down  Sub   Sup   Up    Down  Norm  Inlet 
  Conduit               Length    Dry  Dry   Dry   Crit  Crit  Crit  Crit  Ltd   Ctrl  
  -------------------------------------------------------------------------------------
  1                       1.00   0.00  0.00  0.00  0.00  1.00  0.00  0.00  0.46  0.00
  WS02003060WS02003069    1.00   0.00  0.00  0.00  0.96  0.04  0.00  0.00  0.62  0.00
  WS02003066WSF200        1.00   0.06  0.00  0.00  0.00  0.94  0.00  0.00  0.95  0.00
  WS02003067WS02003066    1.00   0.03  0.03  0.00  0.94  0.00  0.00  0.00  0.00  0.00
  WS02003069WS02003072    1.00   0.00  0.00  0.00  1.00  0.00  0.00  0.00  0.68  0.00
  WS02003072WS02003073    1.00   0.00  0.00  0.00  0.00  0.00  0.00  1.00  0.00  0.00
  WS02004401WS02004402    1.00   0.00  0.00  0.00  1.00  0.00  0.00  0.00  0.00  0.00
  WS02004402WS02004403    1.00   0.00  0.00  0.00  1.00  0.00  0.00  0.00  0.00  0.00
  WS02004403WS02004404    1.00   0.00  0.00  0.00  1.00  0.00  0.00  0.00  0.00  0.00
  WS02004404WS02004405    1.00   0.00  0.00  0.00  1.00  0.00  0.00  0.00  0.01  0.00
  WS02004405WS02004406    1.00   0.00  0.00  0.00  1.00  0.00  0.00  0.00  0.00  0.00
  WS02004406WS02004407    1.00   0.00  0.00  0.00  1.00  0.00  0.00  0.00  0.00  0.00
  WS02004407WS02004409    1.00   0.00  0.00  0.00  0.98  0.02  0.00  0.00  0.99  0.00
  WS02004409WS02004410    1.00   0.00  0.00  0.00  1.00  0.00  0.00  0.00  0.00  0.00
  WS02004410WS02004411    1.00   0.00  0.00  0.00  0.99  0.00  0.00  0.00  0.00  0.00
  WS02004411WS02004412    1.00   0.00  0.00  0.00  0.99  0.00  0.00  0.00  0.00  0.00
  WS02004412WS02004413    1.00   0.01  0.00  0.00  0.99  0.01  0.00  0.00  0.00  0.00
  WS02004413WS02003067    1.00   0.01  0.02  0.00  0.00  0.00  0.97  0.00  0.00  0.00
  WS02006109WS02006110    1.00   0.00  0.00  0.00  1.00  0.00  0.00  0.00  0.00  0.00
  WS02006110WS02006113    1.00   0.00  0.00  0.00  1.00  0.00  0.00  0.00  0.00  0.00
  WS02006111WS02006112    1.00   0.00  0.00  0.00  1.00  0.00  0.00  0.00  1.00  0.00
  WS02006112WS02006115    1.00   0.00  0.00  0.00  1.00  0.00  0.00  0.00  0.00  0.00
  WS02006113WS02006111    1.00   0.00  0.00  0.00  0.00  1.00  0.00  0.00  0.19  0.00
  WS02006115WS02006116    1.00   0.00  0.00  0.00  1.00  0.00  0.00  0.00  0.00  0.00
  WS02006116WS02004401    1.00   0.00  0.00  0.00  1.00  0.00  0.00  0.00  0.00  0.00
  WS02006228WS02006109    1.00   0.00  0.00  0.00  1.00  0.00  0.00  0.00  0.00  0.00
  WS02006229WS02006228    1.00   0.00  0.00  0.00  1.00  0.00  0.00  0.00  0.00  0.00
  WS02006230WS02006229    1.00   0.00  0.00  0.00  1.00  0.00  0.00  0.00  0.00  0.00
  WS02006231WS02006230    1.00   0.00  0.00  0.00  0.45  0.00  0.55  0.00  0.00  0.00
  WS02006232WS02006231    1.00   0.00  0.00  0.00  0.99  0.00  0.00  0.00  0.00  0.00
  WS02006234WS02006232    1.00   0.00  0.00  0.00  1.00  0.00  0.00  0.00  0.25  0.00
  WS02006235WS02006234    1.00   0.00  0.00  0.00  0.85  0.00  0.15  0.00  0.00  0.00
  WS02006238WS02006235    1.00   0.00  0.00  0.00  1.00  0.00  0.00  0.00  0.00  0.00
  WS02006239WS02006238    1.00   0.00  0.00  0.00  1.00  0.00  0.00  0.00  0.35  0.00
  WS02006240WS02006239    1.00   0.00  0.00  0.00  0.81  0.00  0.00  0.19  0.01  0.00
  WS02006242WS02006240    1.00   0.00  0.00  0.00  0.99  0.00  0.01  0.00  0.00  0.00
  WS02006243WS02006242    1.00   0.00  0.00  0.00  0.99  0.00  0.00  0.01  0.49  0.00
  WS02006245WS02006243    1.00   0.00  0.00  0.00  0.90  0.00  0.00  0.10  0.01  0.00
  WS02006247WS02006245    1.00   0.00  0.00  0.00  0.98  0.00  0.00  0.02  0.00  0.00
  WS02006248WS02006247    1.00   0.00  0.00  0.00  0.99  0.00  0.00  0.01  0.46  0.00
  WS02006249WS02006248    1.00   0.00  0.00  0.00  0.74  0.00  0.26  0.00  0.00  0.00
  WS02006251WS02006249    1.00   0.00  0.00  0.00  1.00  0.00  0.00  0.00  0.47  0.00
  WS02006252WS02006251    1.00   0.01  0.26  0.00  0.02  0.00  0.70  0.00  0.00  0.00
  WS02006256WS02006235    1.00   0.00  0.00  0.00  1.00  0.00  0.00  0.00  0.00  0.00
  WSF200WS02003060        1.00   0.00  0.06  0.00  0.17  0.77  0.00  0.00  0.55  0.00
  YS02001580YS02001583    1.00   0.24  0.40  0.00  0.36  0.00  0.00  0.00  0.68  0.00
  YS02001583YS02001586    1.00   0.36  0.20  0.00  0.43  0.00  0.00  0.00  0.68  0.00
  YS02001586YS02001590    1.00   0.22  0.00  0.00  0.58  0.02  0.00  0.18  0.27  0.00
  YS02001590YS02001593    1.00   0.22  0.00  0.00  0.28  0.00  0.50  0.00  0.00  0.00
  YS02001593YS02001596    1.00   0.22  0.00  0.00  0.32  0.01  0.00  0.45  0.04  0.00
  YS02001596YS02001600    1.00   0.22  0.00  0.00  0.36  0.01  0.00  0.41  0.03  0.00
  YS02001600YS02001601    1.00   0.22  0.00  0.00  0.78  0.00  0.00  0.00  0.57  0.00
  YS02001601YS02001602    1.00   0.22  0.00  0.00  0.78  0.00  0.00  0.00  0.00  0.00
  YS02001602YS02001605    1.00   0.22  0.00  0.00  0.78  0.00  0.00  0.00  0.00  0.00
  YS02001605YS02001607    1.00   0.22  0.00  0.00  0.78  0.00  0.00  0.00  0.00  0.00
  YS02001607YS02001610    1.00   0.22  0.00  0.00  0.78  0.00  0.00  0.00  0.00  0.00
  YS02001610YS02001613    1.00   0.22  0.00  0.00  0.78  0.00  0.00  0.00  0.00  0.00
  YS02001613YS02001616    1.00   0.22  0.00  0.00  0.78  0.00  0.00  0.00  0.00  0.00
  YS02001616YS02001619    1.00   0.22  0.00  0.00  0.78  0.00  0.00  0.00  0.00  0.00
  YS02001619YS02001622    1.00   0.22  0.00  0.00  0.78  0.01  0.00  0.00  0.33  0.00
  YS02001622YS02001625    1.00   0.22  0.00  0.00  0.78  0.00  0.00  0.00  0.01  0.00
  YS02001625YS02001629    1.00   0.22  0.01  0.00  0.34  0.00  0.43  0.00  0.00  0.00
  YS02001629YS02163301    1.00   0.22  0.00  0.00  0.78  0.00  0.00  0.00  0.00  0.00
  YS02001633YS02163601    1.00   0.00  0.01  0.00  0.99  0.00  0.00  0.00  0.12  0.00
  YS02001641YS02001644    1.00   0.00  0.00  0.00  1.00  0.00  0.00  0.00  0.00  0.00
  YS02001644YS02001647    1.00   0.00  0.22  0.00  0.78  0.00  0.00  0.00  0.00  0.00
  YS02001647YS02001649    1.00   0.00  0.22  0.00  0.54  0.24  0.00  0.00  0.56  0.00
  YS02001649YS02001757    1.00   0.00  0.00  0.00  0.79  0.21  0.00  0.00  0.41  0.00
  YS02001652YS02001649    1.00   0.00  0.00  0.00  0.99  0.01  0.00  0.00  0.69  0.00
  YS02001655YS02001652    1.00   0.00  0.00  0.00  0.36  0.00  0.00  0.64  0.04  0.00
  YS02001658YS02001655    1.00   0.00  0.22  0.00  0.66  0.12  0.00  0.00  0.66  0.00
  YS02001661YS02001658    1.00   0.22  0.00  0.00  0.44  0.34  0.00  0.00  0.71  0.00
  YS02001664YS02001661    1.00   0.22  0.00  0.00  0.54  0.24  0.00  0.00  0.87  0.00
  YS02001745YS02001748    1.00   0.00  0.00  0.00  0.23  0.03  0.00  0.74  0.10  0.00
  YS02001748YS02001751    1.00   0.00  0.00  0.00  0.91  0.09  0.00  0.00  0.77  0.00
  YS02001751YS02001754    1.00   0.00  0.00  0.00  0.35  0.00  0.00  0.64  0.05  0.00
  YS02001754YS02001757    1.00   0.00  0.00  0.00  1.00  0.00  0.00  0.00  0.72  0.00
  YS02001757CaochengTiaoxuchi    1.00   0.00  0.00  0.00  0.97  0.03  0.00  0.00  0.68  0.00
  YS02001759YS02001757    1.00   0.00  0.00  0.00  0.99  0.01  0.00  0.00  0.64  0.00
  YS02001762YS02001759    1.00   0.00  0.00  0.00  1.00  0.00  0.00  0.00  0.01  0.00
  YS02001765YS02001762    1.00   0.00  0.00  0.00  1.00  0.00  0.00  0.00  0.66  0.00
  YS02001767YS02001765    1.00   0.00  0.00  0.00  1.00  0.00  0.00  0.00  0.00  0.00
  YS02001770YS02001767    1.00   0.00  0.00  0.00  1.00  0.00  0.00  0.00  0.00  0.00
  YS02001774YS02001770    1.00   0.00  0.22  0.00  0.68  0.00  0.10  0.00  0.00  0.00
  YS02001779YS02001774    1.00   0.00  0.00  0.00  1.00  0.00  0.00  0.00  0.71  0.00
  YS02001783YS02001784    1.00   0.00  0.22  0.00  0.77  0.00  0.00  0.00  0.56  0.00
  YS02001784YS02001785    1.00   0.00  0.00  0.00  1.00  0.00  0.00  0.00  0.12  0.00
  YS02001786YS02001788    1.00   0.00  0.00  0.00  0.75  0.25  0.00  0.00  0.00  0.00
  YS02001788YS02001790    1.00   0.00  0.00  0.00  0.28  0.72  0.00  0.00  0.75  0.00
  YS02001790YS02001791    1.00   0.00  0.00  0.00  0.02  0.98  0.00  0.00  0.18  0.00
  YS02001791YS02001793    1.00   0.00  0.00  0.00  0.00  1.00  0.00  0.00  0.01  0.00
  YS02001793JiankangQianchi    1.00   0.00  0.00  0.00  0.93  0.07  0.00  0.00  0.99  0.00
  YS02001882YS02001884    1.00   0.22  0.00  0.00  0.78  0.00  0.00  0.00  0.00  0.00
  YS02001884YS02001887    1.00   0.17  0.04  0.00  0.79  0.00  0.00  0.00  0.00  0.00
  YS02001887YS02001890    1.00   0.00  0.00  0.00  0.92  0.00  0.08  0.00  0.00  0.00
  YS02001890YS02001895    1.00   0.00  0.22  0.00  0.78  0.00  0.00  0.00  0.00  0.00
  YS02001895YS02001898    1.00   0.22  0.00  0.00  0.77  0.00  0.01  0.00  0.00  0.00
  YS02001898YS02001901    1.00   0.22  0.00  0.00  0.78  0.00  0.00  0.00  0.00  0.00
  YS02001901YS02001904    1.00   0.22  0.00  0.00  0.78  0.00  0.00  0.00  0.00  0.00
  YS02001904YS02001907    1.00   0.00  0.22  0.00  0.78  0.00  0.00  0.00  0.00  0.00
  YS02001907YS02006553    1.00   0.00  0.05  0.00  0.95  0.00  0.00  0.00  0.00  0.00
  YS02001910YS02001907    1.00   0.00  0.00  0.00  0.93  0.01  0.00  0.06  0.10  0.00
  YS02001915YS02001910    1.00   0.00  0.00  0.00  0.95  0.05  0.00  0.00  0.11  0.00
  YS02001918YS02001915    1.00   0.00  0.00  0.00  0.95  0.05  0.00  0.00  0.70  0.00
  YS02001920YS02001918    1.00   0.00  0.00  0.00  1.00  0.00  0.00  0.00  0.01  0.00
  YS02001923YS02001920    1.00   0.00  0.00  0.00  1.00  0.00  0.00  0.00  0.88  0.00
  YS02001926YS02001923    1.00   0.00  0.18  0.00  0.14  0.00  0.68  0.00  0.00  0.00
  YS02001929YS02001926    1.00   0.00  0.22  0.00  0.78  0.00  0.00  0.00  0.79  0.00
  YS02006553YS02006556    1.00   0.01  0.00  0.00  0.99  0.00  0.00  0.00  0.03  0.00
  YS02006556YS02006558    1.00   0.00  0.00  0.00  1.00  0.00  0.00  0.00  0.00  0.00
  YS02006558YS02006561    1.00   0.22  0.00  0.00  0.13  0.65  0.00  0.00  0.16  0.00
  YS02006561YS02001783    1.00   0.22  0.00  0.00  0.20  0.58  0.00  0.00  0.66  0.00
  YS02163301YS02001633    1.00   0.00  0.22  0.00  0.78  0.00  0.00  0.00  0.00  0.00
  YS02163601YS02164001    1.00   0.00  0.19  0.00  0.81  0.00  0.00  0.00  0.00  0.00
  YS02164001YS02001641    1.00   0.01  0.18  0.00  0.81  0.00  0.00  0.00  0.05  0.00
  
  
  *************************
  Conduit Surcharge Summary
  *************************
  
  ----------------------------------------------------------------------------
                                                           Hours        Hours 
                         --------- Hours Full --------   Above Full   Capacity
  Conduit                Both Ends  Upstream  Dnstream   Normal Flow   Limited
  ----------------------------------------------------------------------------
  WS02003072WS02003073        0.01      0.01      0.01      0.13         0.01
  WS02004401WS02004402        0.01      0.01      0.01      0.01         0.01
  WS02004402WS02004403        0.01      0.01      0.01      0.01         0.01
  WS02004404WS02004405        0.01      0.01      0.01      4.11         0.01
  WS02004405WS02004406        0.01      0.01      0.01      0.05         0.01
  WS02006109WS02006110        0.06      0.07      2.34      0.09         0.01
  WS02006110WS02006113        0.01      0.01      2.32      0.01         0.01
  WS02006111WS02006112        0.01      0.01      2.76      0.01         0.01
  WS02006112WS02006115        0.01      0.01      0.08      0.01         0.01
  WS02006113WS02006111        0.01      0.01      0.01      0.01         0.01
  WS02006115WS02006116        0.01      0.01      0.01      0.01         0.01
  WS02006116WS02004401        0.01      0.01      0.01      0.01         0.01
  WS02006228WS02006109        2.28      2.34      2.28      3.11         2.28
  WS02006229WS02006228        2.27      2.28      2.27      2.74         2.26
  WS02006230WS02006229        2.51      2.67      2.51      4.28         2.51
  WS02006231WS02006230        0.07      0.07      0.12      4.05         0.01
  WS02006232WS02006231        0.10      0.10      2.37      0.15         0.01
  WS02006234WS02006232        2.26      2.26      2.37      0.13         0.16
  WS02006235WS02006234        0.31      0.31      2.29      3.81         0.01
  WS02006238WS02006235        2.31      2.31      2.39      0.01         0.01
  WS02006239WS02006238        2.32      2.36      2.33      2.59         2.24
  WS02006240WS02006239        2.29      2.31      2.29      2.57         2.21
  WS02006242WS02006240        2.30      2.30      2.49      2.86         0.01
  WS02006243WS02006242        2.31      2.31      2.42      0.01         0.03
  WS02006245WS02006243        2.29      2.30      2.30      2.56         2.18
  WS02006247WS02006245        2.29      2.33      2.29      3.39         2.28
  WS02006248WS02006247        2.28      2.28      2.31      0.01         0.04
  WS02006249WS02006248        2.27      2.27      2.29      3.32         0.01
  WS02006251WS02006249        2.28      2.30      2.29      2.79         2.22
  WS02006252WS02006251        2.88      2.88      2.92      2.89         0.01
  WS02006256WS02006235        3.83      3.92      5.58      0.38         0.03
  YS02001580YS02001583        0.99      0.99      1.09      0.01         0.01
  YS02001583YS02001586        1.01      1.01      1.31      0.01         0.01
  YS02001586YS02001590        1.32      1.32      1.40      0.01         0.01
  YS02001590YS02001593        1.40      1.40      1.42      1.45         0.01
  YS02001593YS02001596        1.41      1.41      1.54      0.01         0.01
  YS02001596YS02001600        1.60      1.60      1.84      0.01         0.01
  YS02001600YS02001601        1.89      1.89      2.03      0.01         0.01
  YS02001601YS02001602        1.98      1.98      2.05      1.89         0.01
  YS02001602YS02001605        1.95      1.95      1.98      2.48         0.01
  YS02001605YS02001607        1.92      1.95      1.92      2.01         1.92
  YS02001607YS02001610        1.38      1.38      1.41      0.01         0.01
  YS02001610YS02001613        1.38      1.38      1.41      0.01         0.01
  YS02001613YS02001616        1.34      1.34      1.38      0.01         0.01
  YS02001616YS02001619        1.32      1.32      1.34      0.01         0.01
  YS02001619YS02001622        1.32      1.32      1.32      1.37         1.19
  YS02001622YS02001625        1.32      1.32      1.54      0.01         0.01
  YS02001625YS02001629        1.27      1.27      1.54      0.01         0.01
  YS02001629YS02163301        1.54      1.54      1.55      0.13         0.28
  YS02001633YS02163601        1.58      1.58      1.62      0.98         0.93
  YS02001641YS02001644        1.49      1.51      1.49      2.06         1.48
  YS02001644YS02001647        1.21      1.21      1.49      0.01         0.01
  YS02001647YS02001649        1.21      1.21      1.35      0.01         0.01
  YS02001649YS02001757        1.35      1.35      1.45      0.43         0.40
  YS02001652YS02001649        1.13      1.13      1.35      0.01         0.01
  YS02001655YS02001652        0.38      0.38      1.06      0.01         0.01
  YS02001658YS02001655        0.02      0.02      0.38      0.01         0.01
  YS02001661YS02001658        0.01      0.01      0.02      0.01         0.01
  YS02001748YS02001751        0.01      0.01      0.01      0.01         0.01
  YS02001751YS02001754        0.01      0.01      0.80      0.01         0.01
  YS02001754YS02001757        0.90      0.90      1.45      0.01         0.01
  YS02001757CaochengTiaoxuchi        1.39      1.45      2.26      0.56         0.42
  YS02001759YS02001757        1.30      1.30      1.45      0.01         0.01
  YS02001762YS02001759        1.26      1.26      1.30      0.01         0.01
  YS02001765YS02001762        1.21      1.21      1.26      0.01         0.01
  YS02001767YS02001765        1.17      1.17      1.21      0.01         0.01
  YS02001770YS02001767        1.17      1.17      1.17      0.88         0.67
  YS02001774YS02001770        1.14      1.14      1.25      0.01         0.01
  YS02001779YS02001774        0.80      0.80      1.25      0.01         0.01
  YS02001783YS02001784        0.76      0.80      0.76      1.03         0.76
  YS02001784YS02001785        0.54      0.76      0.54      1.45         0.54
  YS02001786YS02001788        0.01      0.53      0.01      1.30         0.01
  YS02001790YS02001791        0.01      0.01      0.01      0.74         0.01
  YS02001793JiankangQianchi        0.01      0.01      7.02      0.01         0.01
  YS02001882YS02001884        0.71      0.71      0.72      0.01         0.01
  YS02001884YS02001887        0.76      0.76      0.78      0.01         0.01
  YS02001887YS02001890        0.80      0.80      0.82      0.01         0.01
  YS02001890YS02001895        0.69      0.69      0.85      0.01         0.01
  YS02001895YS02001898        0.67      0.67      0.69      0.01         0.01
  YS02001898YS02001901        0.69      0.69      0.76      0.01         0.01
  YS02001901YS02001904        0.75      0.75      0.76      0.01         0.01
  YS02001904YS02001907        0.75      0.75      1.24      0.01         0.01
  YS02001907YS02006553        1.47      1.47      1.56      0.01         0.01
  YS02001910YS02001907        0.85      0.85      1.12      0.01         0.01
  YS02001915YS02001910        0.70      0.70      0.85      0.01         0.01
  YS02001918YS02001915        0.49      0.49      0.70      0.01         0.01
  YS02001920YS02001918        0.49      0.49      0.54      0.01         0.01
  YS02001923YS02001920        0.37      0.37      0.54      0.01         0.01
  YS02006553YS02006556        1.00      1.00      1.21      0.01         0.01
  YS02006556YS02006558        1.06      1.06      1.29      0.01         0.01
  YS02006558YS02006561        0.60      0.98      0.60      1.40         0.60
  YS02006561YS02001783        0.41      0.41      0.80      0.01         0.01
  YS02163301YS02001633        1.55      1.55      1.60      0.01         0.01
  YS02163601YS02164001        1.52      1.52      1.62      0.17         0.01
  YS02164001YS02001641        1.51      1.52      1.51      1.52         1.46
  
  
  ***************
  Pumping Summary
  ***************
  
  ---------------------------------------------------------------------------------------------------------
                                                  Min       Avg       Max     Total     Power    % Time Off
                        Percent   Number of      Flow      Flow      Flow    Volume     Usage    Pump Curve
  Pump                 Utilized   Start-Ups       LPS       LPS       LPS  10^6 ltr     Kw-hr    Low   High
  ---------------------------------------------------------------------------------------------------------
  CC-R1                   30.94          47      0.00    683.00    683.00     6.087    113.33    0.0   19.1
  CC-R2                   23.50          37      0.00    683.00    683.00     4.622     86.81    0.0   14.2
  CC-S1                   42.72          51      0.00    200.00    200.00     2.461     14.03    0.0    0.0
  CC-S2                   36.02          29      0.00    200.00    200.00     2.075     11.55    0.0    0.0
  JK-R1                    8.55          73      0.00   1000.00   1000.00     2.461     16.90    0.0    0.0
  JK-R2                    9.76         138      0.00   1000.00   1000.00     2.811     18.33    0.0    0.0
  JK-S                     4.91          64      0.00    300.00    300.00     0.424      7.50    0.0    0.0
  

  Analysis begun on:  Wed Aug  9 16:33:22 2023
  Analysis ended on:  Wed Aug  9 16:34:03 2023
  Total elapsed time: 00:00:41