
  OWA STORM WATER MANAGEMENT MODEL - VERSION v5.1.14 (OWA 2022-07-31)
  --------------------------------------------------------------

  WARNING 04: minimum elevation drop used for Conduit WS02004404WS02004405
  WARNING 03: negative offset ignored for Link YS02001904YS02001907
  
  *********************************************************
  NOTE: The summary statistics displayed in this report are
  based on results found at every computational time step,  
  not just on results from each reporting time step.
  *********************************************************
  
  ****************
  Analysis Options
  ****************
  Flow Units ............... LPS
  Process Models:
    Rainfall/Runoff ........ YES
    RDII ................... NO
    Snowmelt ............... NO
    Groundwater ............ NO
    Flow Routing ........... YES
    Ponding Allowed ........ NO
    Water Quality .......... NO
  Infiltration Method ...... HORTON
  Flow Routing Method ...... DYNWAVE
  Surcharge Method ......... EXTRAN
  Starting Date ............ 08/28/2015 08:00:00
  Ending Date .............. 08/28/2015 16:00:00
  Antecedent Dry Days ...... 8.0
  Report Time Step ......... 00:01:00
  Wet Time Step ............ 00:01:00
  Dry Time Step ............ 00:01:00
  Routing Time Step ........ 30.00 sec
  Variable Time Step ....... YES
  Maximum Trials ........... 8
  Number of Threads ........ 4
  Head Tolerance ........... 0.001500 m
  
  
  **************************        Volume         Depth
  Runoff Quantity Continuity     hectare-m            mm
  **************************     ---------       -------
  Initial LID Storage ......         0.049         1.488
  Total Precipitation ......         2.805        84.578
  Evaporation Loss .........         0.000         0.000
  Infiltration Loss ........         0.082         2.459
  Surface Runoff ...........         2.107        63.516
  Final Storage ............         0.667        20.103
  Continuity Error (%) .....        -0.013
  
  
  **************************        Volume        Volume
  Flow Routing Continuity        hectare-m      10^6 ltr
  **************************     ---------     ---------
  Dry Weather Inflow .......         0.025         0.251
  Wet Weather Inflow .......         2.106        21.064
  Groundwater Inflow .......         0.000         0.000
  RDII Inflow ..............         0.000         0.000
  External Inflow ..........         0.083         0.834
  External Outflow .........         2.178        21.782
  Flooding Loss ............         0.134         1.339
  Evaporation Loss .........         0.000         0.000
  Exfiltration Loss ........         0.000         0.000
  Initial Stored Volume ....         0.243         2.431
  Final Stored Volume ......         0.180         1.799
  Continuity Error (%) .....        -1.387
  
  
  *************************
  Highest Continuity Errors
  *************************
  Node YS02001884 (4.79%)
  Node YS02001583 (-2.77%)
  Node WS02006256 (-1.78%)
  Node YS02001774 (1.44%)
  
  
  ***************************
  Time-Step Critical Elements
  ***************************
  Link WS02006252WS02006251 (26.44%)
  Link WS02006238WS02006235 (16.02%)
  Link WS02004404WS02004405 (15.22%)
  Link YS02001791YS02001793 (10.46%)
  Link YS02006556YS02006558 (7.44%)
  
  
  ********************************
  Highest Flow Instability Indexes
  ********************************
  Link WS02006113WS02006111 (55)
  Link WS02006111WS02006112 (30)
  Link WS02004404WS02004405 (23)
  Link WS02006256WS02006235 (22)
  Link WS02004403WS02004404 (20)
  
  
  *************************
  Routing Time Step Summary
  *************************
  Minimum Time Step           :     0.01 sec
  Average Time Step           :     2.26 sec
  Maximum Time Step           :    30.00 sec
  Percent in Steady State     :    -0.00
  Average Iterations per Step :     3.35
  Percent Not Converging      :    13.40
  
  
  ***************************
  Subcatchment Runoff Summary
  ***************************
  
  ------------------------------------------------------------------------------------------------------------------------------
                            Total      Total      Total      Total     Imperv       Perv      Total       Total     Peak  Runoff
                           Precip      Runon       Evap      Infil     Runoff     Runoff     Runoff      Runoff   Runoff   Coeff
  Subcatchment                 mm         mm         mm         mm         mm         mm         mm    10^6 ltr      LPS
  ------------------------------------------------------------------------------------------------------------------------------
  sub60                     84.58       0.00       0.00       1.46      56.51       6.37      62.89        0.83   157.92   0.744
  sub61                     84.58       0.00       0.00       2.25      56.46       9.51      65.97        1.21   231.59   0.780
  sub62                     84.58       0.00       0.00       0.99      60.20       4.33      64.53        1.77   335.27   0.763
  sub63                     84.58       0.00       0.00       4.13      48.36      15.95      64.31        1.46   273.93   0.760
  sub64                     84.58       0.00       0.00       1.98      55.07       7.90      62.98        1.51   284.72   0.745
  sub65                     84.58       0.00       0.00       1.82      59.44       7.22      66.66        1.84   342.82   0.788
  sub66                     84.58       0.00       0.00       4.77      46.78      14.67      61.45        2.87   480.92   0.727
  sub67                     84.58       0.00       0.00       0.98      61.71       4.48      66.19        1.23   235.01   0.783
  sub68                     84.58       0.00       0.00       1.73      54.50       7.29      61.80        1.70   324.28   0.731
  sub69                     84.58       0.00       0.00       1.61      56.89       8.44      65.33        2.42   445.65   0.772
  sub70                     84.58       0.00       0.00       5.29      45.59      18.25      63.84        1.84   290.87   0.755
  sub71                     84.58       0.00       0.00       0.92      54.69       3.92      58.61        1.53   288.68   0.693
  sub72                     84.58       0.00       0.00       0.88      59.08       3.65      62.73        0.86   158.89   0.742
  

  ***********************
  LID Performance Summary
  ***********************

  --------------------------------------------------------------------------------------------------------------------
                                         Total      Evap     Infil   Surface    Drain    Initial     Final  Continuity
                                        Inflow      Loss      Loss   Outflow   Outflow   Storage   Storage       Error
  Subcatchment      LID Control             mm        mm        mm        mm        mm        mm        mm           %
  --------------------------------------------------------------------------------------------------------------------
  sub60             GreenRoof            84.58      0.00      0.00      0.00      0.00      7.05     91.64       -0.01
  sub61             GreenRoof            84.58      0.00      0.00      0.00      0.00      7.05     91.64       -0.01
  sub62             GreenRoof            84.58      0.00      0.00      0.00      0.00      7.05     91.64       -0.01
  sub63             GreenRoof            84.58      0.00      0.00      0.00      0.00      7.05     91.64       -0.01
  sub64             GreenRoof            84.58      0.00      0.00      0.00      0.00      7.05     91.64       -0.01
  sub65             GreenRoof            84.58      0.00      0.00      0.00      0.00      7.05     91.64       -0.01
  sub66             GreenRoof            84.58      0.00      0.00      0.00      0.00      7.05     91.64       -0.01
  sub67             GreenRoof            84.58      0.00      0.00      0.00      0.00      7.05     91.64       -0.01
  sub68             GreenRoof            84.58      0.00      0.00      0.00      0.00      7.05     91.64       -0.01
  sub69             GreenRoof            84.58      0.00      0.00      0.00      0.00      7.05     91.64       -0.01
  sub70             GreenRoof            84.58      0.00      0.00      0.00      0.00      7.05     91.64       -0.01
  sub71             GreenRoof            84.58      0.00      0.00      0.00      0.00      7.05     91.64       -0.01
  sub72             GreenRoof            84.58      0.00      0.00      0.00      0.00      7.05     91.64       -0.01
  
  ******************
  Node Depth Summary
  ******************
  
  ---------------------------------------------------------------------------------
                                 Average  Maximum  Maximum  Time of Max    Reported
                                   Depth    Depth      HGL   Occurrence   Max Depth
  Node                 Type       Meters   Meters   Meters  days hr:min      Meters
  ---------------------------------------------------------------------------------
  WS02003060           JUNCTION     0.24     0.38     5.31     0  01:48        0.38
  WS02003066           JUNCTION     0.20     0.29     5.85     0  01:48        0.29
  WS02003067           JUNCTION     0.51     0.69     6.01     0  01:48        0.69
  WS02003069           JUNCTION     0.27     0.42     5.01     0  01:49        0.42
  WS02003072           JUNCTION     0.33     0.49     4.86     0  01:50        0.49
  WS02003073           JUNCTION     0.18     0.29     4.36     0  01:50        0.29
  WS02004401           JUNCTION     0.62     0.87     6.87     0  01:45        0.87
  WS02004402           JUNCTION     0.66     0.90     6.86     0  01:46        0.90
  WS02004403           JUNCTION     0.68     0.91     6.84     0  01:46        0.91
  WS02004404           JUNCTION     0.76     1.00     6.85     0  01:45        0.98
  WS02004405           JUNCTION     0.75     0.96     6.81     0  01:46        0.96
  WS02004406           JUNCTION     0.76     0.95     6.78     0  01:45        0.95
  WS02004407           JUNCTION     0.19     0.29     6.61     0  01:46        0.29
  WS02004409           JUNCTION     0.41     0.66     6.43     0  01:47        0.66
  WS02004410           JUNCTION     0.44     0.67     6.39     0  01:47        0.67
  WS02004411           JUNCTION     0.46     0.68     6.36     0  01:47        0.68
  WS02004412           JUNCTION     0.48     0.69     6.33     0  01:47        0.69
  WS02004413           JUNCTION     0.64     0.85     6.32     0  01:48        0.85
  WS02006109           JUNCTION     0.67     1.12     7.74     0  03:39        0.97
  WS02006110           JUNCTION     0.68     1.10     7.69     0  03:39        0.92
  WS02006111           JUNCTION     0.19     0.90     7.60     0  00:00        0.40
  WS02006112           JUNCTION     0.78     2.68     8.56     0  00:00        1.14
  WS02006113           JUNCTION     0.29     1.40     8.29     0  00:00        0.46
  WS02006115           JUNCTION     0.51     1.65     7.79     0  00:00        0.86
  WS02006116           JUNCTION     0.59     1.06     7.10     0  00:00        0.85
  WS02006228           JUNCTION     0.66     1.13     7.78     0  03:39        1.01
  WS02006229           JUNCTION     0.64     1.13     7.82     0  01:35        1.01
  WS02006230           JUNCTION     0.63     1.27     8.01     0  01:35        1.10
  WS02006231           JUNCTION     0.42     1.00     8.12     0  01:35        0.85
  WS02006232           JUNCTION     0.56     1.24     8.28     0  01:33        1.04
  WS02006234           JUNCTION     0.48     1.21     8.36     0  03:30        1.06
  WS02006235           JUNCTION     0.52     1.25     8.41     0  01:35        1.14
  WS02006238           JUNCTION     0.55     1.28     8.42     0  01:35        1.18
  WS02006239           JUNCTION     0.52     1.25     8.46     0  01:35        1.16
  WS02006240           JUNCTION     0.50     1.21     8.51     0  01:35        1.18
  WS02006242           JUNCTION     0.57     1.33     8.60     0  03:39        1.33
  WS02006243           JUNCTION     0.49     1.32     8.74     0  00:05        1.28
  WS02006245           JUNCTION     0.49     1.29     8.78     0  00:05        1.26
  WS02006247           JUNCTION     0.52     1.24     8.74     0  03:39        1.24
  WS02006248           JUNCTION     0.48     1.10     8.69     0  03:39        1.10
  WS02006249           JUNCTION     0.51     1.09     8.69     0  01:34        1.09
  WS02006251           JUNCTION     0.51     1.41     9.08     0  01:34        1.20
  WS02006252           JUNCTION     0.36     1.50     9.74     0  01:13        0.76
  WS02006256           JUNCTION     0.87     2.35     9.28     0  00:00        2.35
  WSF200               JUNCTION     0.17     0.29     5.52     0  01:48        0.29
  YS02001580           JUNCTION     0.17     1.05     9.59     0  01:18        0.74
  YS02001583           JUNCTION     0.21     1.14     9.64     0  01:18        0.79
  YS02001586           JUNCTION     0.32     1.13     9.30     0  01:18        1.13
  YS02001590           JUNCTION     0.44     1.38     9.24     0  01:18        1.34
  YS02001593           JUNCTION     0.39     1.30     9.16     0  01:18        1.25
  YS02001596           JUNCTION     0.53     1.66     9.08     0  01:18        1.63
  YS02001600           JUNCTION     0.62     1.86     8.99     0  01:18        1.85
  YS02001601           JUNCTION     0.79     2.06     8.90     0  01:18        2.06
  YS02001602           JUNCTION     0.69     1.87     8.77     0  01:35        1.87
  YS02001605           JUNCTION     0.63     1.78     8.68     0  01:45        1.78
  YS02001607           JUNCTION     0.57     1.68     8.52     0  01:45        1.68
  YS02001610           JUNCTION     0.61     1.68     8.48     0  01:45        1.68
  YS02001613           JUNCTION     0.57     1.70     8.54     0  01:45        1.70
  YS02001616           JUNCTION     0.51     1.61     8.52     0  01:45        1.61
  YS02001619           JUNCTION     0.49     1.61     8.54     0  01:45        1.61
  YS02001622           JUNCTION     0.48     1.62     8.52     0  01:45        1.62
  YS02001625           JUNCTION     0.70     1.78     8.38     0  01:45        1.78
  YS02001629           JUNCTION     0.60     1.81     8.36     0  02:09        1.81
  YS02001633           JUNCTION     0.66     1.87     8.33     0  02:06        1.86
  YS02001641           JUNCTION     0.60     1.71     8.15     0  02:06        1.71
  YS02001644           JUNCTION     0.59     1.66     8.09     0  02:06        1.66
  YS02001647           JUNCTION     0.38     1.37     7.98     0  02:06        1.37
  YS02001649           JUNCTION     0.44     1.48     7.87     0  02:08        1.48
  YS02001652           JUNCTION     0.33     1.40     8.00     0  02:31        1.29
  YS02001655           JUNCTION     0.24     1.20     8.05     0  02:09        1.05
  YS02001658           JUNCTION     0.14     0.71     7.85     0  02:08        0.68
  YS02001661           JUNCTION     0.13     0.44     7.85     0  02:07        0.43
  YS02001664           JUNCTION     0.07     0.20     8.12     0  01:31        0.20
  YS02001745           JUNCTION     0.06     0.17     7.68     0  01:30        0.17
  YS02001748           JUNCTION     0.13     0.61     7.69     0  02:07        0.61
  YS02001751           JUNCTION     0.19     0.80     7.68     0  02:08        0.79
  YS02001754           JUNCTION     0.28     1.09     7.70     0  02:08        1.07
  YS02001757           JUNCTION     0.46     1.50     7.77     0  02:18        1.50
  YS02001759           JUNCTION     0.40     1.40     7.76     0  02:10        1.40
  YS02001762           JUNCTION     0.39     1.37     7.77     0  02:10        1.37
  YS02001765           JUNCTION     0.36     1.33     7.78     0  02:11        1.32
  YS02001767           JUNCTION     0.36     1.34     7.83     0  02:11        1.29
  YS02001770           JUNCTION     0.36     1.39     7.89     0  02:11        1.29
  YS02001774           JUNCTION     0.42     1.49     7.91     0  02:11        1.37
  YS02001779           JUNCTION     0.26     1.25     7.94     0  02:11        1.13
  YS02001783           JUNCTION     0.28     0.93     7.07     0  01:34        0.92
  YS02001784           JUNCTION     0.30     0.86     6.93     0  01:34        0.86
  YS02001786           JUNCTION     0.25     0.70     6.73     0  01:33        0.70
  YS02001788           JUNCTION     0.19     0.55     6.52     0  01:34        0.55
  YS02001790           JUNCTION     0.22     0.64     6.28     0  01:34        0.64
  YS02001791           JUNCTION     0.14     0.38     5.85     0  01:32        0.38
  YS02001793           JUNCTION     0.07     0.20     5.03     0  01:34        0.20
  YS02001882           JUNCTION     0.32     1.03     7.75     0  01:33        1.03
  YS02001884           JUNCTION     0.40     1.13     7.75     0  01:33        1.13
  YS02001887           JUNCTION     0.47     1.22     7.76     0  01:34        1.21
  YS02001890           JUNCTION     0.50     1.24     7.75     0  01:34        1.24
  YS02001895           JUNCTION     0.29     0.99     7.74     0  01:33        0.99
  YS02001898           JUNCTION     0.30     1.00     7.74     0  01:32        1.00
  YS02001901           JUNCTION     0.40     1.13     7.74     0  01:33        1.13
  YS02001904           JUNCTION     0.38     1.11     7.74     0  01:33        1.10
  YS02001907           JUNCTION     0.67     1.46     7.75     0  01:33        1.44
  YS02001910           JUNCTION     0.49     1.25     7.76     0  01:34        1.24
  YS02001915           JUNCTION     0.32     1.04     7.76     0  01:33        1.04
  YS02001918           JUNCTION     0.16     0.69     7.76     0  01:33        0.69
  YS02001920           JUNCTION     0.23     0.76     7.76     0  01:33        0.75
  YS02001923           JUNCTION     0.10     0.50     7.76     0  01:34        0.50
  YS02001926           JUNCTION     0.14     0.35     7.80     0  01:34        0.35
  YS02001929           JUNCTION     0.07     0.19     7.88     0  01:31        0.19
  YS02006553           JUNCTION     0.67     1.44     7.73     0  01:33        1.44
  YS02006556           JUNCTION     0.64     1.39     7.70     0  01:33        1.39
  YS02006558           JUNCTION     0.68     1.43     7.69     0  01:34        1.41
  YS02006561           JUNCTION     0.16     0.50     7.16     0  01:33        0.50
  YS02163301           JUNCTION     0.62     1.83     8.34     0  02:06        1.83
  YS02163601           JUNCTION     0.67     1.85     8.24     0  02:06        1.84
  YS02164001           JUNCTION     0.60     1.76     8.22     0  02:18        1.76
  CC-1                 OUTFALL      0.00     0.00     0.00     0  00:00        0.00
  CC-2                 OUTFALL      0.00     0.00     0.00     0  00:00        0.00
  JK-1                 OUTFALL      0.00     0.00     0.00     0  00:00        0.00
  JK-2                 OUTFALL      0.00     0.00     0.00     0  00:00        0.00
  WSC                  OUTFALL      0.18     0.29     0.96     0  01:51        0.29
  CC-storage           STORAGE      0.90     1.61     7.11     0  02:32        1.61
  JK-storage           STORAGE      1.33     4.23     5.03     0  01:35        4.23
  
  
  *******************
  Node Inflow Summary
  *******************
  
  -------------------------------------------------------------------------------------------------
                                  Maximum  Maximum                  Lateral       Total        Flow
                                  Lateral    Total  Time of Max      Inflow      Inflow     Balance
                                   Inflow   Inflow   Occurrence      Volume      Volume       Error
  Node                 Type           LPS      LPS  days hr:min    10^6 ltr    10^6 ltr     Percent
  -------------------------------------------------------------------------------------------------
  WS02003060           JUNCTION     16.53   537.88     0  01:48       0.476        5.82       0.034
  WS02003066           JUNCTION      0.00   521.05     0  01:48           0        5.35       0.024
  WS02003067           JUNCTION      0.00   520.80     0  01:48           0        5.35       0.074
  WS02003069           JUNCTION      0.32   538.70     0  01:49     0.00922        5.83       0.059
  WS02003072           JUNCTION      0.00   537.91     0  01:49           0        5.83       0.111
  WS02003073           JUNCTION      1.82   539.01     0  01:50      0.0524        5.87       0.085
  WS02004401           JUNCTION      0.00  1697.33     0  00:00           0        5.45       0.201
  WS02004402           JUNCTION      0.00  1210.03     0  00:01           0        5.44       0.195
  WS02004403           JUNCTION      0.00   817.89     0  00:01           0        5.43       0.189
  WS02004404           JUNCTION      0.16   816.53     0  00:01     0.00467        5.42       0.174
  WS02004405           JUNCTION      0.04   789.03     0  00:01      0.0011        5.42       0.187
  WS02004406           JUNCTION      0.00   724.33     0  00:02           0        5.41       0.391
  WS02004407           JUNCTION      0.00   531.35     0  01:45           0        5.38       0.015
  WS02004409           JUNCTION      0.00   530.91     0  01:46           0        5.38       0.041
  WS02004410           JUNCTION      0.00   527.76     0  01:46           0        5.38       0.077
  WS02004411           JUNCTION      0.00   525.08     0  01:47           0        5.38       0.098
  WS02004412           JUNCTION      0.00   523.02     0  01:47           0        5.37       0.132
  WS02004413           JUNCTION      0.00   521.43     0  01:47           0        5.37       0.241
  WS02006109           JUNCTION      1.23  1308.01     0  00:00      0.0354        5.38       0.073
  WS02006110           JUNCTION      0.00   553.27     0  01:35           0        5.35      -0.686
  WS02006111           JUNCTION      0.00  1176.04     0  00:00           0        5.38      -0.721
  WS02006112           JUNCTION      0.00  2307.30     0  00:00           0        5.42      -0.007
  WS02006113           JUNCTION      0.00   568.14     0  01:35           0        5.34      -0.929
  WS02006115           JUNCTION      0.00   898.70     0  00:00           0        5.39      -0.603
  WS02006116           JUNCTION      0.00  1144.85     0  00:01           0        5.43      -0.493
  WS02006228           JUNCTION      0.00   551.26     0  01:35           0        5.31       0.017
  WS02006229           JUNCTION      0.00   550.61     0  01:35           0         5.3       0.155
  WS02006230           JUNCTION     10.28   585.54     0  03:38       0.296        5.28      -0.033
  WS02006231           JUNCTION      0.00   572.71     0  03:38           0        4.98       0.080
  WS02006232           JUNCTION      0.00   571.86     0  03:38           0        4.98       0.077
  WS02006234           JUNCTION      0.00   566.95     0  03:38           0        4.98      -0.102
  WS02006235           JUNCTION      0.00   564.13     0  00:04           0        5.01       0.070
  WS02006238           JUNCTION      0.00   425.46     0  03:30           0         4.6      -0.152
  WS02006239           JUNCTION      0.00   422.51     0  01:45           0        4.57      -0.168
  WS02006240           JUNCTION      0.00   421.21     0  03:30           0        4.55      -0.029
  WS02006242           JUNCTION      0.00   422.67     0  03:30           0        4.54      -0.128
  WS02006243           JUNCTION      0.00   423.36     0  03:30           0        4.53      -0.305
  WS02006245           JUNCTION      0.00   423.57     0  03:30           0        4.54       0.294
  WS02006247           JUNCTION      0.00   424.13     0  03:30           0        4.54      -0.047
  WS02006248           JUNCTION      0.00   425.84     0  03:30           0        4.53      -0.058
  WS02006249           JUNCTION      0.00   793.83     0  00:00           0         4.6       0.300
  WS02006251           JUNCTION      0.08   453.22     0  00:00     0.00222        4.58      -0.254
  WS02006252           JUNCTION      0.00   400.00     0  00:00           0        4.56      -0.546
  WS02006256           JUNCTION      0.00   325.72     0  01:12           0       0.578      -1.746
  WSF200               JUNCTION      0.00   521.14     0  01:48           0        5.35       0.006
  YS02001580           JUNCTION      0.00    71.99     0  01:18           0     0.00478       1.526
  YS02001583           JUNCTION      0.00    98.22     0  01:17           0      0.0166      -2.696
  YS02001586           JUNCTION    290.87   291.14     0  01:33        1.84        1.86       0.064
  YS02001590           JUNCTION      0.00   291.30     0  01:33           0        1.84      -0.041
  YS02001593           JUNCTION      0.00   291.14     0  01:33           0        1.84      -0.001
  YS02001596           JUNCTION      0.00   291.38     0  01:33           0        1.84      -0.017
  YS02001600           JUNCTION      0.00   291.29     0  01:33           0        1.84       0.009
  YS02001601           JUNCTION    445.65   734.20     0  01:32        2.42        4.26       0.009
  YS02001602           JUNCTION      0.00   511.23     0  01:18           0        3.23       0.009
  YS02001605           JUNCTION      0.00   510.81     0  01:18           0        3.17       0.010
  YS02001607           JUNCTION      0.00   510.30     0  01:18           0        3.17       0.053
  YS02001610           JUNCTION      0.00   509.94     0  01:17           0        3.17       0.079
  YS02001613           JUNCTION      0.00   510.73     0  01:17           0        3.17       0.052
  YS02001616           JUNCTION      0.00   510.24     0  01:17           0        3.17       0.013
  YS02001619           JUNCTION    480.92   915.09     0  01:31        2.87        6.03      -0.001
  YS02001622           JUNCTION      0.00   915.05     0  01:30           0        6.02      -0.005
  YS02001625           JUNCTION      0.00   915.09     0  01:30           0        6.02       0.179
  YS02001629           JUNCTION      0.00   915.06     0  01:30           0        6.02      -0.000
  YS02001633           JUNCTION    343.02  1257.80     0  01:32        1.84        7.86       0.039
  YS02001641           JUNCTION      0.00  1258.47     0  01:32           0        7.87       0.034
  YS02001644           JUNCTION    284.76  1543.00     0  01:30        1.51        9.37       0.033
  YS02001647           JUNCTION      0.00  1543.33     0  01:30           0        9.35       0.001
  YS02001649           JUNCTION      0.00  1811.97     0  01:30           0        10.8       0.004
  YS02001652           JUNCTION      0.00   295.53     0  02:12           0        1.47      -0.148
  YS02001655           JUNCTION      0.15   421.93     0  02:27     0.00443        1.46      -0.171
  YS02001658           JUNCTION      0.00   419.70     0  02:06           0        1.46       0.003
  YS02001661           JUNCTION      0.00   273.91     0  01:31           0        1.46       0.033
  YS02001664           JUNCTION    273.93   273.93     0  01:31        1.46        1.46      -0.008
  YS02001745           JUNCTION    157.92   157.92     0  01:30       0.826       0.826       0.081
  YS02001748           JUNCTION      0.04   157.95     0  01:30      0.0013       0.827      -0.112
  YS02001751           JUNCTION      0.01   175.73     0  01:50    0.000317       0.828       0.139
  YS02001754           JUNCTION      0.26   199.57     0  01:49     0.00749       0.835      -0.232
  YS02001757           JUNCTION      0.00  2480.24     0  01:29           0        14.7       0.031
  YS02001759           JUNCTION    231.63   558.06     0  01:27        1.21        3.01      -0.009
  YS02001762           JUNCTION      0.00   331.03     0  01:27           0         1.8       0.011
  YS02001765           JUNCTION      0.00   331.14     0  01:23           0         1.8       0.007
  YS02001767           JUNCTION      0.54   348.28     0  01:23      0.0154        1.79      -0.002
  YS02001770           JUNCTION    335.43   359.61     0  01:25        1.77        1.83      -0.020
  YS02001774           JUNCTION      0.00    71.21     0  01:30           0      0.0943       1.466
  YS02001779           JUNCTION      0.01    40.47     0  01:33    0.000144      0.0339      -0.093
  YS02001783           JUNCTION      0.00   978.13     0  01:33           0        5.38       0.006
  YS02001784           JUNCTION      1.06   979.76     0  01:33      0.0305        5.41       0.011
  YS02001786           JUNCTION      0.06   979.05     0  01:33     0.00162        5.41       0.012
  YS02001788           JUNCTION      0.07   981.85     0  01:34     0.00204        5.41       0.007
  YS02001790           JUNCTION      0.15   985.42     0  01:34     0.00446        5.41       0.048
  YS02001791           JUNCTION      0.00  1062.65     0  01:34           0        5.41      -0.035
  YS02001793           JUNCTION      0.00  1008.30     0  01:34           0        5.41       0.005
  YS02001882           JUNCTION      0.00    40.11     0  01:12           0      0.0171       4.640
  YS02001884           JUNCTION      0.00    83.06     0  01:12           0       0.055       5.027
  YS02001887           JUNCTION    235.46   239.99     0  01:25        1.24        1.28       0.343
  YS02001890           JUNCTION      0.00   238.92     0  01:26           0        1.24       0.423
  YS02001895           JUNCTION      0.00   239.47     0  01:26           0        1.23       0.208
  YS02001898           JUNCTION      0.00   236.19     0  01:29           0        1.23      -0.022
  YS02001901           JUNCTION      0.00   239.41     0  01:21           0        1.23       0.275
  YS02001904           JUNCTION      0.00   236.36     0  01:21           0        1.25       0.243
  YS02001907           JUNCTION      0.00   673.82     0  01:36           0        3.72       0.485
  YS02001910           JUNCTION      0.00   455.49     0  01:36           0        2.48       0.290
  YS02001915           JUNCTION    288.70   454.11     0  01:36        1.53        2.48       0.071
  YS02001918           JUNCTION      0.00   180.37     0  01:37           0       0.946       0.034
  YS02001920           JUNCTION      2.87   170.97     0  01:36      0.0827       0.948       0.116
  YS02001923           JUNCTION      0.04   157.70     0  01:34     0.00109       0.865      -0.008
  YS02001926           JUNCTION      0.05   158.94     0  01:31      0.0015       0.864       0.037
  YS02001929           JUNCTION    158.89   158.89     0  01:31       0.862       0.862      -0.008
  YS02006553           JUNCTION      0.00   671.69     0  01:36           0        3.72       0.318
  YS02006556           JUNCTION      0.00   671.24     0  01:36           0        3.74       0.220
  YS02006558           JUNCTION    325.16   979.63     0  01:33        1.73        5.42       0.072
  YS02006561           JUNCTION      0.00   978.60     0  01:33           0        5.38      -0.009
  YS02163301           JUNCTION      0.00   915.84     0  01:32           0        6.03       0.022
  YS02163601           JUNCTION      0.11  1258.07     0  01:32     0.00317        7.85       0.062
  YS02164001           JUNCTION      0.00  1258.21     0  01:32           0        7.85       0.028
  CC-1                 OUTFALL       0.00   683.00     0  00:31           0        6.03       0.000
  CC-2                 OUTFALL       0.00   683.00     0  00:20           0        4.94       0.000
  JK-1                 OUTFALL       0.00  1000.00     0  00:21           0        2.33       0.000
  JK-2                 OUTFALL       0.00  1000.00     0  00:05           0        2.62       0.000
  WSC                  OUTFALL       0.00   537.53     0  01:51           0        5.87       0.000
  CC-storage           STORAGE       0.00  2420.32     0  01:26           0        16.9      -0.181
  JK-storage           STORAGE       0.00   991.42     0  01:34           0        5.56      -0.298
  
  
  **********************
  Node Surcharge Summary
  **********************
  
  Surcharging occurs when water rises above the top of the highest conduit.
  ---------------------------------------------------------------------
                                               Max. Height   Min. Depth
                                   Hours       Above Crown    Below Rim
  Node                 Type      Surcharged         Meters       Meters
  ---------------------------------------------------------------------
  WS02006109           JUNCTION        2.20          0.299        1.521
  WS02006110           JUNCTION        0.16          0.192        1.658
  WS02006111           JUNCTION        0.01          0.087        1.783
  WS02006112           JUNCTION        0.14          1.680        0.000
  WS02006113           JUNCTION        0.01          0.600        1.330
  WS02006115           JUNCTION        0.01          0.642        1.608
  WS02006116           JUNCTION        0.01          0.000        2.290
  WS02006228           JUNCTION        2.19          0.297        1.903
  WS02006229           JUNCTION        2.20          0.326        2.124
  WS02006230           JUNCTION        0.16          0.190        1.380
  WS02006231           JUNCTION        0.18          0.290        1.240
  WS02006232           JUNCTION        2.31          0.544        0.936
  WS02006234           JUNCTION        0.38          0.487        0.753
  WS02006235           JUNCTION        2.23          0.538        0.752
  WS02006238           JUNCTION        2.26          0.559        0.871
  WS02006239           JUNCTION        2.21          0.515        0.775
  WS02006240           JUNCTION        2.21          0.505        0.885
  WS02006242           JUNCTION        2.39          0.600        0.220
  WS02006243           JUNCTION        2.21          0.611        0.159
  WS02006245           JUNCTION        2.20          0.583        0.267
  WS02006247           JUNCTION        2.22          0.530        0.230
  WS02006248           JUNCTION        2.18          0.380        0.000
  WS02006249           JUNCTION        2.19          0.390        0.000
  WS02006251           JUNCTION        0.22          0.376        0.804
  WS02006252           JUNCTION        2.90          1.100        0.000
  WS02006256           JUNCTION        5.79          2.050        0.000
  YS02001580           JUNCTION        1.09          0.450        0.000
  YS02001583           JUNCTION        1.12          0.500        0.000
  YS02001586           JUNCTION        1.51          0.510        0.000
  YS02001590           JUNCTION        1.70          0.729        0.021
  YS02001593           JUNCTION        1.70          0.682        0.158
  YS02001596           JUNCTION        1.82          0.935        0.135
  YS02001600           JUNCTION        1.89          1.184        0.006
  YS02001601           JUNCTION        2.06          1.440        0.000
  YS02001602           JUNCTION        2.00          1.270        0.000
  YS02001605           JUNCTION        1.98          1.180        0.000
  YS02001607           JUNCTION        1.67          0.677        0.003
  YS02001610           JUNCTION        1.70          0.680        0.000
  YS02001613           JUNCTION        1.67          0.700        0.000
  YS02001616           JUNCTION        1.61          0.610        0.000
  YS02001619           JUNCTION        1.59          0.610        0.000
  YS02001622           JUNCTION        1.58          0.620        0.000
  YS02001625           JUNCTION        1.78          0.780        0.000
  YS02001629           JUNCTION        1.36          0.432        0.038
  YS02001633           JUNCTION        1.80          0.853        0.207
  YS02001641           JUNCTION        1.74          0.711        0.389
  YS02001644           JUNCTION        1.71          0.658        0.262
  YS02001647           JUNCTION        1.12          0.373        0.527
  YS02001649           JUNCTION        1.43          0.479        0.571
  YS02001652           JUNCTION        0.69          0.375        0.755
  YS02001655           JUNCTION        0.01          0.204        0.996
  YS02001754           JUNCTION        0.08          0.041        1.109
  YS02001757           JUNCTION        1.47          0.504        0.706
  YS02001759           JUNCTION        1.34          0.396        0.814
  YS02001762           JUNCTION        1.26          0.372        0.778
  YS02001765           JUNCTION        1.07          0.335        0.765
  YS02001767           JUNCTION        0.90          0.338        0.692
  YS02001770           JUNCTION        0.75          0.365        0.555
  YS02001774           JUNCTION        1.23          0.485        0.565
  YS02001779           JUNCTION        0.05          0.254        0.426
  YS02001783           JUNCTION        0.46          0.128        1.472
  YS02001784           JUNCTION        0.30          0.065        1.425
  YS02001882           JUNCTION        0.10          0.033        0.797
  YS02001884           JUNCTION        0.18          0.072        0.798
  YS02001887           JUNCTION        0.36          0.167        0.783
  YS02001890           JUNCTION        0.46          0.195        0.565
  YS02001901           JUNCTION        0.29          0.135        0.735
  YS02001904           JUNCTION        0.24          0.107        0.743
  YS02001907           JUNCTION        1.35          0.446        0.504
  YS02001910           JUNCTION        0.83          0.248        0.852
  YS02001915           JUNCTION        0.12          0.042        0.958
  YS02006553           JUNCTION        1.42          0.443        0.747
  YS02006556           JUNCTION        1.07          0.349        1.001
  YS02006558           JUNCTION        1.04          0.327        1.073
  YS02163301           JUNCTION        1.78          0.827        0.203
  YS02163601           JUNCTION        1.82          0.845        0.235
  YS02164001           JUNCTION        1.75          0.762        0.338
  
  
  *********************
  Node Flooding Summary
  *********************
  
  Flooding refers to all water that overflows a node, whether it ponds or not.
  --------------------------------------------------------------------------
                                                             Total   Maximum
                                 Maximum   Time of Max       Flood    Ponded
                        Hours       Rate    Occurrence      Volume     Depth
  Node                 Flooded       LPS   days hr:min    10^6 ltr    Meters
  --------------------------------------------------------------------------
  WS02006112              0.01   1547.89      0  00:00       0.047     0.000
  WS02006248              0.01      3.83      0  03:39       0.000     0.000
  WS02006249              0.19    103.10      0  01:34       0.046     0.000
  WS02006252              0.01    213.15      0  01:14       0.000     0.000
  WS02006256              0.53    313.88      0  01:12       0.166     0.000
  YS02001580              0.01     36.56      0  01:18       0.000     0.000
  YS02001583              0.01     41.59      0  01:18       0.000     0.000
  YS02001586              0.01     42.65      0  01:18       0.000     0.000
  YS02001601              1.32    307.69      0  01:34       1.028     0.000
  YS02001602              0.72     61.55      0  02:06       0.067     0.000
  YS02001605              0.01      0.08      0  01:45       0.000     0.000
  YS02001610              0.08     15.93      0  02:07       0.002     0.000
  YS02001613              0.01      0.41      0  01:45       0.000     0.000
  YS02001616              0.01      0.70      0  01:45       0.000     0.000
  YS02001619              0.01      0.99      0  01:45       0.000     0.000
  YS02001622              0.01      0.25      0  01:45       0.000     0.000
  YS02001625              0.03     17.38      0  02:06       0.001     0.000
  
  
  **********************
  Storage Volume Summary
  **********************
  
  --------------------------------------------------------------------------------------------------
                         Average     Avg  Evap Exfil       Maximum     Max    Time of Max    Maximum
                          Volume    Pcnt  Pcnt  Pcnt        Volume    Pcnt     Occurrence    Outflow
  Storage Unit           1000 m3    Full  Loss  Loss       1000 m3    Full    days hr:min        LPS
  --------------------------------------------------------------------------------------------------
  CC-storage               2.504      39     0     0         4.497      70       0  02:32    1766.00
  JK-storage               0.067      23     0     0         0.213      73       0  01:35    2300.00
  
  
  ***********************
  Outfall Loading Summary
  ***********************
  
  -----------------------------------------------------------
                         Flow       Avg       Max       Total
                         Freq      Flow      Flow      Volume
  Outfall Node           Pcnt       LPS       LPS    10^6 ltr
  -----------------------------------------------------------
  CC-1                  38.40    683.00    683.00       6.031
  CC-2                  36.16    683.00    683.00       4.936
  JK-1                  12.65   1000.00   1000.00       2.327
  JK-2                  11.56   1000.00   1000.00       2.621
  WSC                   99.99    254.09    537.53       5.867
  -----------------------------------------------------------
  System                39.75   3620.09    537.53      21.782
  
  
  ********************
  Link Flow Summary
  ********************
  
  -----------------------------------------------------------------------------
                                 Maximum  Time of Max   Maximum    Max/    Max/
                                  |Flow|   Occurrence   |Veloc|    Full    Full
  Link                 Type          LPS  days hr:min     m/sec    Flow   Depth
  -----------------------------------------------------------------------------
  1                    CONDUIT    537.53     0  01:51      2.80    0.19    0.29
  WS02003060WS02003069 CONDUIT    538.38     0  01:49      1.63    0.21    0.33
  WS02003066WSF200     CONDUIT    521.14     0  01:48      2.83    0.09    0.22
  WS02003067WS02003066 CONDUIT    521.05     0  01:48      1.19    0.17    0.41
  WS02003069WS02003072 CONDUIT    537.91     0  01:49      1.36    0.26    0.38
  WS02003072WS02003073 CONDUIT    537.19     0  01:50      1.42    1.16    0.37
  WS02004401WS02004402 CONDUIT   1210.03     0  00:01      2.53    1.45    0.88
  WS02004402WS02004403 CONDUIT    817.89     0  00:01      2.15    1.18    0.90
  WS02004403WS02004404 CONDUIT    816.37     0  00:01      1.91    0.59    0.95
  WS02004404WS02004405 CONDUIT    788.99     0  00:01      2.33    7.73    0.97
  WS02004405WS02004406 CONDUIT    724.33     0  00:02      2.23    1.43    0.96
  WS02004406WS02004407 CONDUIT    531.35     0  01:45      1.03    0.24    0.62
  WS02004407WS02004409 CONDUIT    530.91     0  01:46      1.93    0.19    0.47
  WS02004409WS02004410 CONDUIT    527.76     0  01:46      1.29    0.68    0.66
  WS02004410WS02004411 CONDUIT    525.08     0  01:47      1.20    0.72    0.68
  WS02004411WS02004412 CONDUIT    523.02     0  01:47      1.14    0.74    0.68
  WS02004412WS02004413 CONDUIT    521.43     0  01:47      1.15    0.35    0.77
  WS02004413WS02003067 CONDUIT    520.80     0  01:48      1.09    0.22    0.59
  WS02006109WS02006110 CONDUIT   1306.78     0  00:00      3.14    2.51    1.00
  WS02006110WS02006113 CONDUIT    568.14     0  01:35      1.37    0.52    1.00
  WS02006111WS02006112 CONDUIT   2307.30     0  00:00      9.18    1.10    0.91
  WS02006112WS02006115 CONDUIT    898.70     0  00:00      1.15    0.53    1.00
  WS02006113WS02006111 CONDUIT   1176.04     0  00:00      2.46    1.41    1.00
  WS02006115WS02006116 CONDUIT   1144.85     0  00:01      1.76    1.47    1.00
  WS02006116WS02004401 CONDUIT   1697.33     0  00:00      3.01    2.34    0.86
  WS02006228WS02006109 CONDUIT    551.01     0  01:35      1.40    2.41    1.00
  WS02006229WS02006228 CONDUIT    551.26     0  01:35      1.25    1.83    1.00
  WS02006230WS02006229 CONDUIT    550.61     0  01:35      1.43   12.25    1.00
  WS02006231WS02006230 CONDUIT    575.26     0  03:38      1.55    8.73    1.00
  WS02006232WS02006231 CONDUIT    572.71     0  03:38      1.49    1.20    1.00
  WS02006234WS02006232 CONDUIT    571.86     0  03:38      1.49    1.16    1.00
  WS02006235WS02006234 CONDUIT    566.95     0  03:38      1.59    5.98    1.00
  WS02006238WS02006235 CONDUIT    438.05     0  03:29      1.48    0.98    1.00
  WS02006239WS02006238 CONDUIT    425.46     0  03:30      1.11    1.36    1.00
  WS02006240WS02006239 CONDUIT    422.51     0  01:45      1.15    1.33    1.00
  WS02006242WS02006240 CONDUIT    421.21     0  03:30      1.09    1.67    1.00
  WS02006243WS02006242 CONDUIT    422.67     0  03:30      1.33    0.90    1.00
  WS02006245WS02006243 CONDUIT    423.36     0  03:30      1.46    1.25    1.00
  WS02006247WS02006245 CONDUIT    423.57     0  03:30      1.46    3.36    1.00
  WS02006248WS02006247 CONDUIT    424.13     0  03:30      1.50    0.92    1.00
  WS02006249WS02006248 CONDUIT    425.84     0  03:30      1.44    2.33    1.00
  WS02006251WS02006249 CONDUIT    793.83     0  00:00      2.76    2.29    1.00
  WS02006252WS02006251 CONDUIT    453.14     0  00:00     23.67    1.66    1.00
  WS02006256WS02006235 CONDUIT    288.76     0  00:01      4.23    3.06    1.00
  WSF200WS02003060     CONDUIT    521.35     0  01:48      2.04    0.12    0.28
  YS02001580YS02001583 CONDUIT     71.99     0  01:18      0.50    0.28    1.00
  YS02001583YS02001586 CONDUIT     98.22     0  01:17      0.43    0.15    1.00
  YS02001586YS02001590 CONDUIT    291.30     0  01:33      1.26    0.51    1.00
  YS02001590YS02001593 CONDUIT    291.14     0  01:33      1.04    1.83    1.00
  YS02001593YS02001596 CONDUIT    291.38     0  01:33      1.69    0.46    1.00
  YS02001596YS02001600 CONDUIT    291.29     0  01:33      1.23    0.57    1.00
  YS02001600YS02001601 CONDUIT    291.15     0  01:33      1.03    0.50    1.00
  YS02001601YS02001602 CONDUIT    511.23     0  01:18      1.81    1.85    1.00
  YS02001602YS02001605 CONDUIT    510.81     0  01:18      1.81   10.81    1.00
  YS02001605YS02001607 CONDUIT    510.30     0  01:18      1.80    2.80    1.00
  YS02001607YS02001610 CONDUIT    509.94     0  01:17      0.73    0.48    1.00
  YS02001610YS02001613 CONDUIT    510.73     0  01:17      0.67    0.59    1.00
  YS02001613YS02001616 CONDUIT    510.24     0  01:17      0.72    0.44    1.00
  YS02001616YS02001619 CONDUIT    506.58     0  01:18      0.78    0.88    1.00
  YS02001619YS02001622 CONDUIT    915.05     0  01:30      1.66    1.35    1.00
  YS02001622YS02001625 CONDUIT    915.09     0  01:30      1.17    0.49    1.00
  YS02001625YS02001629 CONDUIT    915.06     0  01:30      1.17    0.44    1.00
  YS02001629YS02163301 CONDUIT    915.84     0  01:32      1.17    1.13    1.00
  YS02001633YS02163601 CONDUIT   1257.96     0  01:32      1.60    1.32    1.00
  YS02001641YS02001644 CONDUIT   1258.51     0  01:30      1.60    4.07    1.00
  YS02001644YS02001647 CONDUIT   1543.33     0  01:30      2.07    0.91    1.00
  YS02001647YS02001649 CONDUIT   1548.22     0  01:31      2.32    0.82    1.00
  YS02001649YS02001757 CONDUIT   1805.81     0  01:30      2.53    1.10    1.00
  YS02001652YS02001649 CONDUIT    296.92     0  02:12      1.21    0.15    1.00
  YS02001655YS02001652 CONDUIT    295.53     0  02:12      1.65    0.14    1.00
  YS02001658YS02001655 CONDUIT    421.77     0  02:27      1.83    0.18    0.85
  YS02001661YS02001658 CONDUIT    419.70     0  02:06      2.06    0.16    0.49
  YS02001664YS02001661 CONDUIT    273.91     0  01:31      1.84    0.09    0.31
  YS02001745YS02001748 CONDUIT    157.90     0  01:30      1.83    0.06    0.34
  YS02001748YS02001751 CONDUIT    175.71     0  01:50      1.52    0.09    0.70
  YS02001751YS02001754 CONDUIT    199.31     0  01:49      1.50    0.10    0.90
  YS02001754YS02001757 CONDUIT    191.34     0  01:21      0.95    0.08    1.00
  YS02001757CaochengTiaoxuchi CONDUIT   2420.32     0  01:26      3.96    1.05    1.00
  YS02001759YS02001757 CONDUIT    545.65     0  01:27      1.27    0.39    1.00
  YS02001762YS02001759 CONDUIT    328.76     0  01:27      0.72    0.38    1.00
  YS02001765YS02001762 CONDUIT    331.03     0  01:27      0.84    0.31    1.00
  YS02001767YS02001765 CONDUIT    331.14     0  01:23      0.93    0.42    1.00
  YS02001770YS02001767 CONDUIT    347.74     0  01:23      0.86    1.38    1.00
  YS02001774YS02001770 CONDUIT     71.21     0  01:30      0.65    0.05    1.00
  YS02001779YS02001774 CONDUIT     40.46     0  01:33      0.17    0.02    1.00
  YS02001783YS02001784 CONDUIT    978.70     0  01:33      1.95    1.35    1.00
  YS02001784YS02001785 CONDUIT    978.99     0  01:33      2.00    2.28    0.94
  YS02001786YS02001788 CONDUIT    981.78     0  01:34      2.35    1.89    0.78
  YS02001788YS02001790 CONDUIT    985.27     0  01:34      2.51    0.73    0.74
  YS02001790YS02001791 CONDUIT   1062.65     0  01:34      3.18    1.16    0.63
  YS02001791YS02001793 CONDUIT   1008.30     0  01:34      6.29    0.43    0.36
  YS02001793JiankangQianchi CONDUIT    991.42     0  01:34      2.03    0.08    0.60
  YS02001882YS02001884 CONDUIT     40.11     0  01:12      0.36    0.05    1.00
  YS02001884YS02001887 CONDUIT     83.06     0  01:12      0.30    0.11    1.00
  YS02001887YS02001890 CONDUIT    238.92     0  01:26      0.36    0.41    1.00
  YS02001890YS02001895 CONDUIT    239.47     0  01:26      0.38    0.11    1.00
  YS02001895YS02001898 CONDUIT    236.19     0  01:29      0.66    0.41    0.98
  YS02001898YS02001901 CONDUIT    239.41     0  01:21      0.53    0.15    1.00
  YS02001901YS02001904 CONDUIT    236.36     0  01:21      0.58    0.37    1.00
  YS02001904YS02001907 CONDUIT    229.87     0  01:29      0.33    0.08    1.00
  YS02001907YS02006553 CONDUIT    671.69     0  01:36      0.75    0.79    1.00
  YS02001910YS02001907 CONDUIT    455.73     0  01:36      0.58    0.26    1.00
  YS02001915YS02001910 CONDUIT    455.49     0  01:36      1.05    0.23    1.00
  YS02001918YS02001915 CONDUIT    189.75     0  01:37      0.44    0.10    0.85
  YS02001920YS02001918 CONDUIT    180.37     0  01:37      0.70    0.17    0.72
  YS02001923YS02001920 CONDUIT    168.10     0  01:36      0.77    0.08    0.63
  YS02001926YS02001923 CONDUIT    157.66     0  01:34      0.91    0.23    0.32
  YS02001929YS02001926 CONDUIT    158.89     0  01:31      1.00    0.08    0.27
  YS02006553YS02006556 CONDUIT    671.24     0  01:36      0.85    0.57    1.00
  YS02006556YS02006558 CONDUIT    671.33     0  01:35      0.85    0.53    1.00
  YS02006558YS02006561 CONDUIT    978.60     0  01:33      3.60    2.16    0.92
  YS02006561YS02001783 CONDUIT    978.13     0  01:33      2.23    0.51    0.81
  YS02163301YS02001633 CONDUIT    916.02     0  01:32      1.17    0.86    1.00
  YS02163601YS02164001 CONDUIT   1258.21     0  01:32      1.60    1.11    1.00
  YS02164001YS02001641 CONDUIT   1258.47     0  01:32      1.60    1.72    1.00
  CC-R1                PUMP       683.00     0  00:31              1.00
  CC-R2                PUMP       683.00     0  00:20              1.00
  CC-S1                PUMP       200.00     0  00:00              1.00
  CC-S2                PUMP       200.00     0  00:00              1.00
  JK-R1                PUMP      1000.00     0  00:21              1.00
  JK-R2                PUMP      1000.00     0  00:05              1.00
  JK-S                 PUMP       300.00     0  00:00              1.00
  
  
  ***************************
  Flow Classification Summary
  ***************************
  
  -------------------------------------------------------------------------------------
                      Adjusted    ---------- Fraction of Time in Flow Class ---------- 
                       /Actual         Up    Down  Sub   Sup   Up    Down  Norm  Inlet 
  Conduit               Length    Dry  Dry   Dry   Crit  Crit  Crit  Crit  Ltd   Ctrl  
  -------------------------------------------------------------------------------------
  1                       1.00   0.00  0.00  0.00  0.00  1.00  0.00  0.00  0.48  0.00
  WS02003060WS02003069    1.00   0.00  0.00  0.00  0.95  0.05  0.00  0.00  0.62  0.00
  WS02003066WSF200        1.00   0.06  0.00  0.00  0.00  0.94  0.00  0.00  0.94  0.00
  WS02003067WS02003066    1.00   0.03  0.02  0.00  0.95  0.00  0.00  0.00  0.00  0.00
  WS02003069WS02003072    1.00   0.00  0.00  0.00  1.00  0.00  0.00  0.00  0.68  0.00
  WS02003072WS02003073    1.00   0.00  0.00  0.00  0.00  0.00  0.00  1.00  0.00  0.00
  WS02004401WS02004402    1.00   0.00  0.00  0.00  1.00  0.00  0.00  0.00  0.00  0.00
  WS02004402WS02004403    1.00   0.00  0.00  0.00  1.00  0.00  0.00  0.00  0.00  0.00
  WS02004403WS02004404    1.00   0.00  0.00  0.00  1.00  0.00  0.00  0.00  0.00  0.00
  WS02004404WS02004405    1.00   0.00  0.00  0.00  1.00  0.00  0.00  0.00  0.01  0.00
  WS02004405WS02004406    1.00   0.00  0.00  0.00  1.00  0.00  0.00  0.00  0.00  0.00
  WS02004406WS02004407    1.00   0.00  0.00  0.00  1.00  0.00  0.00  0.00  0.00  0.00
  WS02004407WS02004409    1.00   0.00  0.00  0.00  0.98  0.02  0.00  0.00  0.99  0.00
  WS02004409WS02004410    1.00   0.00  0.00  0.00  1.00  0.00  0.00  0.00  0.00  0.00
  WS02004410WS02004411    1.00   0.00  0.00  0.00  0.99  0.00  0.00  0.00  0.00  0.00
  WS02004411WS02004412    1.00   0.00  0.00  0.00  0.99  0.00  0.00  0.00  0.00  0.00
  WS02004412WS02004413    1.00   0.01  0.00  0.00  0.99  0.01  0.00  0.00  0.00  0.00
  WS02004413WS02003067    1.00   0.01  0.02  0.00  0.00  0.00  0.97  0.00  0.00  0.00
  WS02006109WS02006110    1.00   0.00  0.00  0.00  1.00  0.00  0.00  0.00  0.00  0.00
  WS02006110WS02006113    1.00   0.00  0.00  0.00  1.00  0.00  0.00  0.00  0.00  0.00
  WS02006111WS02006112    1.00   0.00  0.00  0.00  1.00  0.00  0.00  0.00  1.00  0.00
  WS02006112WS02006115    1.00   0.00  0.00  0.00  1.00  0.00  0.00  0.00  0.00  0.00
  WS02006113WS02006111    1.00   0.00  0.00  0.00  0.00  1.00  0.00  0.00  0.19  0.00
  WS02006115WS02006116    1.00   0.00  0.00  0.00  1.00  0.00  0.00  0.00  0.00  0.00
  WS02006116WS02004401    1.00   0.00  0.00  0.00  1.00  0.00  0.00  0.00  0.00  0.00
  WS02006228WS02006109    1.00   0.00  0.00  0.00  1.00  0.00  0.00  0.00  0.00  0.00
  WS02006229WS02006228    1.00   0.00  0.00  0.00  1.00  0.00  0.00  0.00  0.00  0.00
  WS02006230WS02006229    1.00   0.00  0.00  0.00  1.00  0.00  0.00  0.00  0.03  0.00
  WS02006231WS02006230    1.00   0.00  0.00  0.00  0.47  0.00  0.52  0.00  0.00  0.00
  WS02006232WS02006231    1.00   0.00  0.00  0.00  0.99  0.00  0.01  0.00  0.00  0.00
  WS02006234WS02006232    1.00   0.00  0.00  0.00  1.00  0.00  0.00  0.00  0.25  0.00
  WS02006235WS02006234    1.00   0.00  0.00  0.00  0.86  0.00  0.14  0.00  0.00  0.00
  WS02006238WS02006235    1.00   0.00  0.00  0.00  1.00  0.00  0.00  0.00  0.00  0.00
  WS02006239WS02006238    1.00   0.00  0.00  0.00  1.00  0.00  0.00  0.00  0.34  0.00
  WS02006240WS02006239    1.00   0.00  0.00  0.00  0.82  0.00  0.00  0.18  0.01  0.00
  WS02006242WS02006240    1.00   0.00  0.00  0.00  0.99  0.00  0.01  0.00  0.00  0.00
  WS02006243WS02006242    1.00   0.00  0.00  0.00  0.99  0.00  0.00  0.01  0.49  0.00
  WS02006245WS02006243    1.00   0.00  0.00  0.00  0.92  0.00  0.00  0.08  0.01  0.00
  WS02006247WS02006245    1.00   0.00  0.00  0.00  0.99  0.00  0.00  0.01  0.00  0.00
  WS02006248WS02006247    1.00   0.00  0.00  0.00  0.99  0.00  0.00  0.01  0.46  0.00
  WS02006249WS02006248    1.00   0.00  0.00  0.00  0.77  0.00  0.23  0.00  0.00  0.00
  WS02006251WS02006249    1.00   0.00  0.00  0.00  1.00  0.00  0.00  0.00  0.47  0.00
  WS02006252WS02006251    1.00   0.01  0.23  0.00  0.04  0.00  0.72  0.00  0.01  0.00
  WS02006256WS02006235    1.00   0.00  0.00  0.00  0.99  0.01  0.00  0.00  0.00  0.00
  WSF200WS02003060        1.00   0.00  0.06  0.00  0.16  0.79  0.00  0.00  0.54  0.00
  YS02001580YS02001583    1.00   0.24  0.36  0.00  0.40  0.00  0.00  0.00  0.63  0.00
  YS02001583YS02001586    1.00   0.34  0.16  0.00  0.50  0.00  0.00  0.00  0.63  0.00
  YS02001586YS02001590    1.00   0.20  0.00  0.00  0.61  0.02  0.00  0.17  0.24  0.00
  YS02001590YS02001593    1.00   0.20  0.00  0.00  0.33  0.00  0.46  0.00  0.00  0.00
  YS02001593YS02001596    1.00   0.20  0.00  0.00  0.35  0.01  0.00  0.44  0.01  0.00
  YS02001596YS02001600    1.00   0.20  0.00  0.00  0.37  0.01  0.00  0.42  0.02  0.00
  YS02001600YS02001601    1.00   0.20  0.00  0.00  0.79  0.00  0.00  0.00  0.57  0.00
  YS02001601YS02001602    1.00   0.20  0.00  0.00  0.80  0.00  0.00  0.00  0.00  0.00
  YS02001602YS02001605    1.00   0.20  0.00  0.00  0.80  0.00  0.00  0.00  0.00  0.00
  YS02001605YS02001607    1.00   0.20  0.00  0.00  0.80  0.00  0.00  0.00  0.00  0.00
  YS02001607YS02001610    1.00   0.20  0.00  0.00  0.79  0.00  0.00  0.00  0.00  0.00
  YS02001610YS02001613    1.00   0.20  0.00  0.00  0.80  0.00  0.00  0.00  0.00  0.00
  YS02001613YS02001616    1.00   0.20  0.00  0.00  0.80  0.00  0.00  0.00  0.00  0.00
  YS02001616YS02001619    1.00   0.20  0.00  0.00  0.80  0.00  0.00  0.00  0.00  0.00
  YS02001619YS02001622    1.00   0.20  0.00  0.00  0.79  0.01  0.00  0.00  0.32  0.00
  YS02001622YS02001625    1.00   0.20  0.00  0.00  0.79  0.00  0.00  0.00  0.01  0.00
  YS02001625YS02001629    1.00   0.20  0.01  0.00  0.35  0.00  0.44  0.00  0.00  0.00
  YS02001629YS02163301    1.00   0.21  0.00  0.00  0.79  0.00  0.00  0.00  0.00  0.00
  YS02001633YS02163601    1.00   0.00  0.01  0.00  0.99  0.00  0.00  0.00  0.13  0.00
  YS02001641YS02001644    1.00   0.00  0.00  0.00  1.00  0.00  0.00  0.00  0.00  0.00
  YS02001644YS02001647    1.00   0.00  0.21  0.00  0.79  0.00  0.00  0.00  0.00  0.00
  YS02001647YS02001649    1.00   0.00  0.21  0.00  0.54  0.25  0.00  0.00  0.56  0.00
  YS02001649YS02001757    1.00   0.00  0.00  0.00  0.81  0.19  0.00  0.00  0.39  0.00
  YS02001652YS02001649    1.00   0.00  0.00  0.00  0.99  0.01  0.00  0.00  0.68  0.00
  YS02001655YS02001652    1.00   0.00  0.00  0.00  0.37  0.01  0.00  0.63  0.04  0.00
  YS02001658YS02001655    1.00   0.00  0.21  0.00  0.67  0.12  0.00  0.00  0.64  0.00
  YS02001661YS02001658    1.00   0.21  0.00  0.00  0.41  0.38  0.00  0.00  0.75  0.00
  YS02001664YS02001661    1.00   0.20  0.00  0.00  0.45  0.35  0.00  0.00  0.87  0.00
  YS02001745YS02001748    1.00   0.00  0.00  0.00  0.22  0.02  0.00  0.76  0.18  0.00
  YS02001748YS02001751    1.00   0.00  0.00  0.00  0.88  0.12  0.00  0.00  0.76  0.00
  YS02001751YS02001754    1.00   0.00  0.00  0.00  0.36  0.01  0.00  0.63  0.04  0.00
  YS02001754YS02001757    1.00   0.00  0.00  0.00  1.00  0.00  0.00  0.00  0.72  0.00
  YS02001757CaochengTiaoxuchi    1.00   0.00  0.00  0.00  0.94  0.06  0.00  0.00  0.67  0.00
  YS02001759YS02001757    1.00   0.00  0.00  0.00  0.99  0.01  0.00  0.00  0.62  0.00
  YS02001762YS02001759    1.00   0.00  0.00  0.00  1.00  0.00  0.00  0.00  0.01  0.00
  YS02001765YS02001762    1.00   0.00  0.00  0.00  1.00  0.00  0.00  0.00  0.65  0.00
  YS02001767YS02001765    1.00   0.00  0.00  0.00  1.00  0.00  0.00  0.00  0.00  0.00
  YS02001770YS02001767    1.00   0.00  0.00  0.00  1.00  0.00  0.00  0.00  0.00  0.00
  YS02001774YS02001770    1.00   0.00  0.20  0.00  0.70  0.00  0.10  0.00  0.00  0.00
  YS02001779YS02001774    1.00   0.00  0.00  0.00  1.00  0.00  0.00  0.00  0.70  0.00
  YS02001783YS02001784    1.00   0.00  0.21  0.00  0.79  0.00  0.00  0.00  0.56  0.00
  YS02001784YS02001785    1.00   0.00  0.00  0.00  1.00  0.00  0.00  0.00  0.13  0.00
  YS02001786YS02001788    1.00   0.00  0.00  0.00  0.65  0.35  0.00  0.00  0.00  0.00
  YS02001788YS02001790    1.00   0.00  0.00  0.00  0.21  0.79  0.00  0.00  0.75  0.00
  YS02001790YS02001791    1.00   0.00  0.00  0.00  0.02  0.98  0.00  0.00  0.18  0.00
  YS02001791YS02001793    1.00   0.00  0.00  0.00  0.00  1.00  0.00  0.00  0.00  0.00
  YS02001793JiankangQianchi    1.00   0.00  0.00  0.00  1.00  0.00  0.00  0.00  0.99  0.00
  YS02001882YS02001884    1.00   0.21  0.00  0.00  0.79  0.00  0.00  0.00  0.00  0.00
  YS02001884YS02001887    1.00   0.16  0.04  0.00  0.80  0.00  0.00  0.00  0.00  0.00
  YS02001887YS02001890    1.00   0.00  0.00  0.00  0.93  0.00  0.07  0.00  0.00  0.00
  YS02001890YS02001895    1.00   0.00  0.21  0.00  0.79  0.00  0.00  0.00  0.00  0.00
  YS02001895YS02001898    1.00   0.21  0.00  0.00  0.79  0.00  0.00  0.00  0.00  0.00
  YS02001898YS02001901    1.00   0.21  0.00  0.00  0.79  0.00  0.00  0.00  0.00  0.00
  YS02001901YS02001904    1.00   0.21  0.00  0.00  0.79  0.00  0.00  0.00  0.00  0.00
  YS02001904YS02001907    1.00   0.00  0.21  0.00  0.79  0.00  0.00  0.00  0.00  0.00
  YS02001907YS02006553    1.00   0.00  0.05  0.00  0.95  0.00  0.00  0.00  0.00  0.00
  YS02001910YS02001907    1.00   0.00  0.00  0.00  0.93  0.01  0.00  0.06  0.10  0.00
  YS02001915YS02001910    1.00   0.00  0.00  0.00  0.95  0.05  0.00  0.00  0.11  0.00
  YS02001918YS02001915    1.00   0.00  0.00  0.00  0.95  0.05  0.00  0.00  0.65  0.00
  YS02001920YS02001918    1.00   0.00  0.00  0.00  1.00  0.00  0.00  0.00  0.01  0.00
  YS02001923YS02001920    1.00   0.00  0.00  0.00  1.00  0.00  0.00  0.00  0.88  0.00
  YS02001926YS02001923    1.00   0.00  0.17  0.00  0.04  0.00  0.80  0.00  0.00  0.00
  YS02001929YS02001926    1.00   0.00  0.20  0.00  0.80  0.00  0.00  0.00  0.87  0.00
  YS02006553YS02006556    1.00   0.01  0.00  0.00  0.99  0.00  0.00  0.00  0.03  0.00
  YS02006556YS02006558    1.00   0.00  0.00  0.00  1.00  0.00  0.00  0.00  0.00  0.00
  YS02006558YS02006561    1.00   0.21  0.00  0.00  0.00  0.79  0.00  0.00  0.12  0.00
  YS02006561YS02001783    1.00   0.21  0.00  0.00  0.21  0.58  0.00  0.00  0.62  0.00
  YS02163301YS02001633    1.00   0.00  0.21  0.00  0.79  0.00  0.00  0.00  0.00  0.00
  YS02163601YS02164001    1.00   0.00  0.17  0.00  0.82  0.00  0.00  0.00  0.00  0.00
  YS02164001YS02001641    1.00   0.01  0.17  0.00  0.82  0.00  0.00  0.00  0.05  0.00
  
  
  *************************
  Conduit Surcharge Summary
  *************************
  
  ----------------------------------------------------------------------------
                                                           Hours        Hours 
                         --------- Hours Full --------   Above Full   Capacity
  Conduit                Both Ends  Upstream  Dnstream   Normal Flow   Limited
  ----------------------------------------------------------------------------
  WS02003072WS02003073        0.01      0.01      0.01      0.16         0.01
  WS02004401WS02004402        0.01      0.01      0.01      0.01         0.01
  WS02004402WS02004403        0.01      0.01      0.01      0.01         0.01
  WS02004404WS02004405        0.01      0.01      0.01      4.14         0.01
  WS02004405WS02004406        0.01      0.01      0.01      0.09         0.01
  WS02006109WS02006110        0.16      0.16      2.27      0.18         0.01
  WS02006110WS02006113        0.01      0.01      2.23      0.01         0.01
  WS02006111WS02006112        0.01      0.01      2.83      0.01         0.01
  WS02006112WS02006115        0.01      0.01      0.13      0.01         0.01
  WS02006113WS02006111        0.01      0.01      0.01      0.01         0.01
  WS02006115WS02006116        0.01      0.01      0.01      0.01         0.01
  WS02006116WS02004401        0.01      0.01      0.01      0.01         0.01
  WS02006228WS02006109        2.20      2.28      2.20      3.22         2.20
  WS02006229WS02006228        2.19      2.20      2.19      2.85         2.19
  WS02006230WS02006229        2.53      2.78      2.53      4.30         2.53
  WS02006231WS02006230        0.16      0.16      0.20      4.09         0.01
  WS02006232WS02006231        0.18      0.18      2.31      0.24         0.01
  WS02006234WS02006232        2.20      2.20      2.31      0.21         0.25
  WS02006235WS02006234        0.37      0.38      2.22      3.89         0.01
  WS02006238WS02006235        2.24      2.24      2.34      0.01         0.01
  WS02006239WS02006238        2.24      2.29      2.26      2.58         2.17
  WS02006240WS02006239        2.21      2.22      2.21      2.56         2.14
  WS02006242WS02006240        2.21      2.21      2.49      2.90         0.01
  WS02006243WS02006242        2.23      2.23      2.39      0.01         0.02
  WS02006245WS02006243        2.20      2.21      2.21      2.46         1.99
  WS02006247WS02006245        2.20      2.24      2.20      3.43         2.19
  WS02006248WS02006247        2.19      2.19      2.22      0.01         0.03
  WS02006249WS02006248        2.17      2.18      2.19      3.36         0.01
  WS02006251WS02006249        2.18      2.20      2.19      2.77         2.12
  WS02006252WS02006251        2.85      2.85      2.89      2.86         0.01
  WS02006256WS02006235        3.92      4.01      5.70      0.52         0.03
  YS02001580YS02001583        1.09      1.09      1.24      0.01         0.01
  YS02001583YS02001586        1.12      1.12      1.51      0.01         0.01
  YS02001586YS02001590        1.54      1.54      1.70      0.01         0.01
  YS02001590YS02001593        1.70      1.70      1.73      1.72         0.01
  YS02001593YS02001596        1.72      1.72      1.82      0.01         0.01
  YS02001596YS02001600        1.85      1.85      1.89      0.01         0.01
  YS02001600YS02001601        1.92      1.92      2.06      0.01         0.01
  YS02001601YS02001602        2.00      2.00      2.08      1.92         0.01
  YS02001602YS02001605        1.98      1.98      2.00      2.52         0.01
  YS02001605YS02001607        1.96      1.98      1.96      2.03         1.95
  YS02001607YS02001610        1.67      1.67      1.70      0.01         0.01
  YS02001610YS02001613        1.67      1.67      1.70      0.01         0.01
  YS02001613YS02001616        1.61      1.61      1.67      0.01         0.01
  YS02001616YS02001619        1.59      1.59      1.61      0.01         0.01
  YS02001619YS02001622        1.58      1.59      1.58      1.69         1.55
  YS02001622YS02001625        1.58      1.58      1.78      0.01         0.01
  YS02001625YS02001629        1.36      1.36      1.78      0.01         0.01
  YS02001629YS02163301        1.78      1.78      1.78      0.67         0.86
  YS02001633YS02163601        1.80      1.80      1.82      1.38         1.36
  YS02001641YS02001644        1.71      1.74      1.71      2.08         1.71
  YS02001644YS02001647        1.12      1.12      1.71      0.01         0.01
  YS02001647YS02001649        1.12      1.12      1.43      0.01         0.01
  YS02001649YS02001757        1.42      1.43      1.47      0.32         0.16
  YS02001652YS02001649        0.80      0.80      1.43      0.01         0.01
  YS02001655YS02001652        0.01      0.01      0.69      0.01         0.01
  YS02001658YS02001655        0.01      0.01      0.01      0.01         0.01
  YS02001751YS02001754        0.01      0.01      0.08      0.01         0.01
  YS02001754YS02001757        0.45      0.45      1.47      0.01         0.01
  YS02001757CaochengTiaoxuchi        1.47      1.47      2.20      0.16         0.01
  YS02001759YS02001757        1.34      1.34      1.47      0.01         0.01
  YS02001762YS02001759        1.26      1.26      1.34      0.01         0.01
  YS02001765YS02001762        1.07      1.07      1.26      0.01         0.01
  YS02001767YS02001765        0.90      0.90      1.07      0.01         0.01
  YS02001770YS02001767        0.89      0.90      0.90      0.96         0.40
  YS02001774YS02001770        0.75      0.75      1.23      0.01         0.01
  YS02001779YS02001774        0.05      0.05      1.23      0.01         0.01
  YS02001783YS02001784        0.30      0.46      0.30      1.15         0.30
  YS02001784YS02001785        0.01      0.30      0.01      1.80         0.01
  YS02001786YS02001788        0.01      0.01      0.01      1.54         0.01
  YS02001790YS02001791        0.01      0.01      0.01      0.25         0.01
  YS02001793JiankangQianchi        0.01      0.01      7.09      0.01         0.01
  YS02001882YS02001884        0.10      0.10      0.18      0.01         0.01
  YS02001884YS02001887        0.30      0.30      0.36      0.01         0.01
  YS02001887YS02001890        0.46      0.46      0.60      0.01         0.01
  YS02001890YS02001895        0.01      0.01      0.84      0.01         0.01
  YS02001898YS02001901        0.04      0.04      0.29      0.01         0.01
  YS02001901YS02001904        0.24      0.24      0.29      0.01         0.01
  YS02001904YS02001907        0.24      0.24      1.44      0.01         0.01
  YS02001907YS02006553        1.81      1.81      1.84      0.01         0.01
  YS02001910YS02001907        0.83      0.83      1.35      0.01         0.01
  YS02001915YS02001910        0.12      0.12      0.83      0.01         0.01
  YS02001918YS02001915        0.01      0.01      0.12      0.01         0.01
  YS02006553YS02006556        1.07      1.07      1.42      0.01         0.01
  YS02006556YS02006558        1.23      1.23      1.57      0.01         0.01
  YS02006558YS02006561        0.01      1.04      0.01      1.75         0.01
  YS02006561YS02001783        0.01      0.01      0.46      0.01         0.01
  YS02163301YS02001633        1.78      1.78      1.81      0.01         0.01
  YS02163601YS02164001        1.75      1.75      1.82      0.57         0.01
  YS02164001YS02001641        1.74      1.75      1.74      1.82         1.74
  
  
  ***************
  Pumping Summary
  ***************
  
  ---------------------------------------------------------------------------------------------------------
                                                  Min       Avg       Max     Total     Power    % Time Off
                        Percent   Number of      Flow      Flow      Flow    Volume     Usage    Pump Curve
  Pump                 Utilized   Start-Ups       LPS       LPS       LPS  10^6 ltr     Kw-hr    Low   High
  ---------------------------------------------------------------------------------------------------------
  CC-R1                   30.86          50      0.00    683.00    683.00     6.070    111.82    0.0   22.4
  CC-R2                   25.29          34      0.00    683.00    683.00     4.974     92.23    0.0   16.5
  CC-S1                   43.66          46      0.00    200.00    200.00     2.515     14.67    0.0    0.0
  CC-S2                   35.63          21      0.00    200.00    200.00     2.052     11.72    0.0    0.0
  JK-R1                    8.07          97      0.00   1000.00   1000.00     2.325     17.63    0.0    0.0
  JK-R2                    9.10         120      0.00   1000.00   1000.00     2.622     15.56    0.0    0.0
  JK-S                     6.67          60      0.00    300.00    300.00     0.577      9.35    0.0    0.0
  

  Analysis begun on:  Wed Aug  9 16:32:01 2023
  Analysis ended on:  Wed Aug  9 16:32:41 2023
  Total elapsed time: 00:00:40