
  OWA STORM WATER MANAGEMENT MODEL - VERSION v5.1.14 (OWA 2022-07-31)
  --------------------------------------------------------------

  WARNING 04: minimum elevation drop used for Conduit WS02004404WS02004405
  WARNING 03: negative offset ignored for Link YS02001904YS02001907
  
  *********************************************************
  NOTE: The summary statistics displayed in this report are
  based on results found at every computational time step,  
  not just on results from each reporting time step.
  *********************************************************
  
  ****************
  Analysis Options
  ****************
  Flow Units ............... LPS
  Process Models:
    Rainfall/Runoff ........ YES
    RDII ................... NO
    Snowmelt ............... NO
    Groundwater ............ NO
    Flow Routing ........... YES
    Ponding Allowed ........ NO
    Water Quality .......... NO
  Infiltration Method ...... HORTON
  Flow Routing Method ...... DYNWAVE
  Surcharge Method ......... EXTRAN
  Starting Date ............ 08/28/2015 08:00:00
  Ending Date .............. 08/28/2015 16:00:00
  Antecedent Dry Days ...... 8.0
  Report Time Step ......... 00:01:00
  Wet Time Step ............ 00:01:00
  Dry Time Step ............ 00:01:00
  Routing Time Step ........ 30.00 sec
  Variable Time Step ....... YES
  Maximum Trials ........... 8
  Number of Threads ........ 4
  Head Tolerance ........... 0.001500 m
  
  
  **************************        Volume         Depth
  Runoff Quantity Continuity     hectare-m            mm
  **************************     ---------       -------
  Initial LID Storage ......         0.049         1.488
  Total Precipitation ......         2.644        79.703
  Evaporation Loss .........         0.000         0.000
  Infiltration Loss ........         0.082         2.469
  Surface Runoff ...........         1.979        59.659
  Final Storage ............         0.633        19.072
  Continuity Error (%) .....        -0.012
  
  
  **************************        Volume        Volume
  Flow Routing Continuity        hectare-m      10^6 ltr
  **************************     ---------     ---------
  Dry Weather Inflow .......         0.000         0.000
  Wet Weather Inflow .......         1.978        19.782
  Groundwater Inflow .......         0.000         0.000
  RDII Inflow ..............         0.000         0.000
  External Inflow ..........         0.083         0.834
  External Outflow .........         2.054        20.544
  Flooding Loss ............         0.107         1.071
  Evaporation Loss .........         0.000         0.000
  Exfiltration Loss ........         0.000         0.000
  Initial Stored Volume ....         0.243         2.431
  Final Stored Volume ......         0.178         1.782
  Continuity Error (%) .....        -1.518
  
  
  *************************
  Highest Continuity Errors
  *************************
  Node YS02001583 (-3.23%)
  Node YS02001884 (3.13%)
  Node WS02006256 (-2.40%)
  Node YS02001774 (1.26%)
  Node WS02006110 (-1.01%)
  
  
  ***************************
  Time-Step Critical Elements
  ***************************
  Link WS02004404WS02004405 (18.47%)
  Link WS02006252WS02006251 (12.78%)
  Link WS02006238WS02006235 (12.15%)
  Link WS02006235WS02006234 (11.36%)
  Link YS02006556YS02006558 (11.03%)
  
  
  ********************************
  Highest Flow Instability Indexes
  ********************************
  Link WS02006113WS02006111 (45)
  Link WS02006111WS02006112 (33)
  Link WS02004404WS02004405 (25)
  Link WS02004403WS02004404 (23)
  Link WS02006110WS02006113 (22)
  
  
  *************************
  Routing Time Step Summary
  *************************
  Minimum Time Step           :     0.00 sec
  Average Time Step           :     2.58 sec
  Maximum Time Step           :    30.00 sec
  Percent in Steady State     :     0.00
  Average Iterations per Step :     3.35
  Percent Not Converging      :    12.72
  
  
  ***************************
  Subcatchment Runoff Summary
  ***************************
  
  ------------------------------------------------------------------------------------------------------------------------------
                            Total      Total      Total      Total     Imperv       Perv      Total       Total     Peak  Runoff
                           Precip      Runon       Evap      Infil     Runoff     Runoff     Runoff      Runoff   Runoff   Coeff
  Subcatchment                 mm         mm         mm         mm         mm         mm         mm    10^6 ltr      LPS
  ------------------------------------------------------------------------------------------------------------------------------
  sub60                     79.70       0.00       0.00       1.47      53.20       5.91      59.12        0.78   157.17   0.742
  sub61                     79.70       0.00       0.00       2.26      53.16       8.81      61.97        1.14   229.44   0.778
  sub62                     79.70       0.00       0.00       1.00      56.67       4.02      60.69        1.66   332.42   0.761
  sub63                     79.70       0.00       0.00       4.15      45.53      14.77      60.30        1.37   265.98   0.757
  sub64                     79.70       0.00       0.00       1.99      51.85       7.32      59.17        1.42   278.72   0.742
  sub65                     79.70       0.00       0.00       1.83      55.96       6.69      62.64        1.72   334.29   0.786
  sub66                     79.70       0.00       0.00       4.79      44.04      13.54      57.58        2.68   455.31   0.722
  sub67                     79.70       0.00       0.00       0.98      58.10       4.16      62.25        1.16   234.83   0.781
  sub68                     79.70       0.00       0.00       1.74      51.31       6.76      58.07        1.60   321.32   0.729
  sub69                     79.70       0.00       0.00       1.62      53.60       7.85      61.46        2.28   436.68   0.771
  sub70                     79.70       0.00       0.00       5.29      42.95      16.89      59.84        1.73   276.55   0.751
  sub71                     79.70       0.00       0.00       0.92      51.48       3.63      55.12        1.44   284.03   0.692
  sub72                     79.70       0.00       0.00       0.88      55.62       3.38      59.00        0.81   154.28   0.740
  

  ***********************
  LID Performance Summary
  ***********************

  --------------------------------------------------------------------------------------------------------------------
                                         Total      Evap     Infil   Surface    Drain    Initial     Final  Continuity
                                        Inflow      Loss      Loss   Outflow   Outflow   Storage   Storage       Error
  Subcatchment      LID Control             mm        mm        mm        mm        mm        mm        mm           %
  --------------------------------------------------------------------------------------------------------------------
  sub60             GreenRoof            79.70      0.00      0.00      0.00      0.00      7.05     86.75        0.00
  sub61             GreenRoof            79.70      0.00      0.00      0.00      0.00      7.05     86.75        0.00
  sub62             GreenRoof            79.70      0.00      0.00      0.00      0.00      7.05     86.75        0.00
  sub63             GreenRoof            79.70      0.00      0.00      0.00      0.00      7.05     86.75        0.00
  sub64             GreenRoof            79.70      0.00      0.00      0.00      0.00      7.05     86.75        0.00
  sub65             GreenRoof            79.70      0.00      0.00      0.00      0.00      7.05     86.75        0.00
  sub66             GreenRoof            79.70      0.00      0.00      0.00      0.00      7.05     86.75        0.00
  sub67             GreenRoof            79.70      0.00      0.00      0.00      0.00      7.05     86.75        0.00
  sub68             GreenRoof            79.70      0.00      0.00      0.00      0.00      7.05     86.75        0.00
  sub69             GreenRoof            79.70      0.00      0.00      0.00      0.00      7.05     86.75        0.00
  sub70             GreenRoof            79.70      0.00      0.00      0.00      0.00      7.05     86.75        0.00
  sub71             GreenRoof            79.70      0.00      0.00      0.00      0.00      7.05     86.75        0.00
  sub72             GreenRoof            79.70      0.00      0.00      0.00      0.00      7.05     86.75        0.00
  
  ******************
  Node Depth Summary
  ******************
  
  ---------------------------------------------------------------------------------
                                 Average  Maximum  Maximum  Time of Max    Reported
                                   Depth    Depth      HGL   Occurrence   Max Depth
  Node                 Type       Meters   Meters   Meters  days hr:min      Meters
  ---------------------------------------------------------------------------------
  WS02003060           JUNCTION     0.25     0.38     5.32     0  01:47        0.38
  WS02003066           JUNCTION     0.20     0.30     5.85     0  01:49        0.30
  WS02003067           JUNCTION     0.52     0.70     6.02     0  01:49        0.70
  WS02003069           JUNCTION     0.27     0.43     5.02     0  01:48        0.43
  WS02003072           JUNCTION     0.33     0.50     4.87     0  01:49        0.50
  WS02003073           JUNCTION     0.19     0.30     4.36     0  01:49        0.30
  WS02004401           JUNCTION     0.63     0.88     6.88     0  01:46        0.88
  WS02004402           JUNCTION     0.66     0.90     6.86     0  01:40        0.90
  WS02004403           JUNCTION     0.69     0.92     6.85     0  01:45        0.92
  WS02004404           JUNCTION     0.76     1.05     6.90     0  01:45        1.02
  WS02004405           JUNCTION     0.75     0.97     6.82     0  01:46        0.96
  WS02004406           JUNCTION     0.76     0.96     6.79     0  01:42        0.96
  WS02004407           JUNCTION     0.19     0.30     6.61     0  01:47        0.30
  WS02004409           JUNCTION     0.42     0.67     6.44     0  01:47        0.67
  WS02004410           JUNCTION     0.44     0.68     6.40     0  01:48        0.68
  WS02004411           JUNCTION     0.46     0.69     6.37     0  01:48        0.69
  WS02004412           JUNCTION     0.48     0.70     6.34     0  01:48        0.70
  WS02004413           JUNCTION     0.65     0.86     6.33     0  01:48        0.86
  WS02006109           JUNCTION     0.68     1.24     7.85     0  00:00        1.02
  WS02006110           JUNCTION     0.68     1.45     8.04     0  00:00        1.00
  WS02006111           JUNCTION     0.19     1.67     8.37     0  00:00        0.56
  WS02006112           JUNCTION     0.79     2.68     8.56     0  00:00        1.29
  WS02006113           JUNCTION     0.29     1.50     8.40     0  00:00        0.45
  WS02006115           JUNCTION     0.51     1.69     7.83     0  00:00        0.86
  WS02006116           JUNCTION     0.60     1.11     7.15     0  00:00        0.85
  WS02006228           JUNCTION     0.68     1.64     8.29     0  00:00        1.02
  WS02006229           JUNCTION     0.65     1.31     8.00     0  00:00        1.03
  WS02006230           JUNCTION     0.66     1.29     8.03     0  02:02        1.14
  WS02006231           JUNCTION     0.44     1.06     8.18     0  03:17        0.89
  WS02006232           JUNCTION     0.58     1.21     8.25     0  03:17        1.10
  WS02006234           JUNCTION     0.52     1.30     8.46     0  02:07        1.15
  WS02006235           JUNCTION     0.56     1.36     8.53     0  03:17        1.25
  WS02006238           JUNCTION     0.59     1.40     8.54     0  03:17        1.29
  WS02006239           JUNCTION     0.56     1.38     8.59     0  03:17        1.28
  WS02006240           JUNCTION     0.54     1.64     8.93     0  02:07        1.25
  WS02006242           JUNCTION     0.62     1.50     8.76     0  02:07        1.32
  WS02006243           JUNCTION     0.55     1.38     8.80     0  02:07        1.21
  WS02006245           JUNCTION     0.55     1.30     8.79     0  02:07        1.19
  WS02006247           JUNCTION     0.58     1.24     8.74     0  02:07        1.20
  WS02006248           JUNCTION     0.55     1.10     8.69     0  01:24        1.10
  WS02006249           JUNCTION     0.58     1.09     8.69     0  01:23        1.09
  WS02006251           JUNCTION     0.58     1.94     9.61     0  01:24        1.94
  WS02006252           JUNCTION     0.39     1.50     9.74     0  00:11        1.50
  WS02006256           JUNCTION     0.95     2.35     9.28     0  00:06        2.35
  WSF200               JUNCTION     0.18     0.29     5.52     0  01:47        0.29
  YS02001580           JUNCTION     0.17     1.05     9.59     0  01:18        0.74
  YS02001583           JUNCTION     0.20     1.14     9.64     0  01:18        0.78
  YS02001586           JUNCTION     0.34     1.13     9.30     0  01:18        1.13
  YS02001590           JUNCTION     0.48     1.40     9.26     0  01:18        1.37
  YS02001593           JUNCTION     0.43     1.33     9.19     0  01:18        1.33
  YS02001596           JUNCTION     0.61     1.68     9.10     0  01:18        1.65
  YS02001600           JUNCTION     0.72     1.87     9.00     0  01:18        1.87
  YS02001601           JUNCTION     0.91     2.06     8.90     0  01:18        2.06
  YS02001602           JUNCTION     0.79     1.87     8.77     0  01:18        1.87
  YS02001605           JUNCTION     0.71     1.78     8.68     0  02:07        1.78
  YS02001607           JUNCTION     0.62     1.58     8.42     0  01:18        1.51
  YS02001610           JUNCTION     0.66     1.63     8.43     0  01:18        1.55
  YS02001613           JUNCTION     0.61     1.64     8.48     0  02:07        1.64
  YS02001616           JUNCTION     0.54     1.61     8.52     0  02:07        1.61
  YS02001619           JUNCTION     0.52     1.45     8.38     0  01:18        1.39
  YS02001622           JUNCTION     0.51     1.42     8.32     0  01:45        1.37
  YS02001625           JUNCTION     0.76     1.78     8.38     0  02:07        1.78
  YS02001629           JUNCTION     0.66     1.65     8.20     0  01:45        1.61
  YS02001633           JUNCTION     0.71     1.67     8.13     0  01:45        1.63
  YS02001641           JUNCTION     0.65     1.51     7.94     0  02:07        1.43
  YS02001644           JUNCTION     0.63     1.40     7.84     0  01:45        1.37
  YS02001647           JUNCTION     0.40     1.13     7.74     0  02:07        1.08
  YS02001649           JUNCTION     0.47     1.22     7.61     0  02:10        1.19
  YS02001652           JUNCTION     0.34     1.02     7.62     0  02:14        1.00
  YS02001655           JUNCTION     0.23     0.76     7.61     0  02:15        0.74
  YS02001658           JUNCTION     0.13     0.46     7.60     0  02:13        0.45
  YS02001661           JUNCTION     0.15     0.29     7.69     0  01:27        0.29
  YS02001664           JUNCTION     0.08     0.20     8.12     0  01:27        0.20
  YS02001745           JUNCTION     0.06     0.17     7.68     0  01:25        0.17
  YS02001748           JUNCTION     0.12     0.43     7.51     0  02:14        0.41
  YS02001751           JUNCTION     0.18     0.63     7.51     0  02:15        0.62
  YS02001754           JUNCTION     0.29     0.90     7.51     0  02:14        0.89
  YS02001757           JUNCTION     0.49     1.24     7.50     0  02:14        1.23
  YS02001759           JUNCTION     0.42     1.14     7.50     0  02:16        1.12
  YS02001762           JUNCTION     0.41     1.11     7.51     0  02:11        1.10
  YS02001765           JUNCTION     0.38     1.07     7.52     0  02:11        1.05
  YS02001767           JUNCTION     0.36     1.02     7.51     0  02:11        1.02
  YS02001770           JUNCTION     0.37     1.01     7.51     0  02:13        1.01
  YS02001774           JUNCTION     0.44     1.08     7.51     0  02:14        1.08
  YS02001779           JUNCTION     0.26     0.82     7.51     0  02:11        0.82
  YS02001783           JUNCTION     0.31     0.88     7.02     0  01:29        0.88
  YS02001784           JUNCTION     0.32     0.83     6.90     0  01:30        0.83
  YS02001786           JUNCTION     0.27     0.67     6.70     0  01:30        0.67
  YS02001788           JUNCTION     0.20     0.53     6.51     0  01:30        0.53
  YS02001790           JUNCTION     0.24     0.62     6.27     0  01:31        0.62
  YS02001791           JUNCTION     0.15     0.37     5.84     0  01:31        0.37
  YS02001793           JUNCTION     0.08     0.19     5.02     0  01:31        0.19
  YS02001882           JUNCTION     0.34     0.97     7.69     0  01:29        0.97
  YS02001884           JUNCTION     0.43     1.07     7.69     0  01:28        1.06
  YS02001887           JUNCTION     0.50     1.15     7.69     0  01:29        1.14
  YS02001890           JUNCTION     0.53     1.18     7.68     0  01:29        1.17
  YS02001895           JUNCTION     0.31     0.93     7.68     0  01:29        0.93
  YS02001898           JUNCTION     0.32     0.94     7.68     0  01:29        0.94
  YS02001901           JUNCTION     0.43     1.07     7.67     0  01:29        1.06
  YS02001904           JUNCTION     0.41     1.04     7.67     0  01:30        1.04
  YS02001907           JUNCTION     0.71     1.38     7.67     0  01:30        1.38
  YS02001910           JUNCTION     0.52     1.18     7.68     0  01:30        1.18
  YS02001915           JUNCTION     0.34     0.97     7.69     0  01:29        0.97
  YS02001918           JUNCTION     0.15     0.63     7.70     0  01:30        0.63
  YS02001920           JUNCTION     0.21     0.69     7.70     0  01:31        0.69
  YS02001923           JUNCTION     0.09     0.44     7.70     0  01:30        0.44
  YS02001926           JUNCTION     0.15     0.32     7.77     0  01:31        0.32
  YS02001929           JUNCTION     0.08     0.18     7.88     0  01:28        0.18
  YS02006553           JUNCTION     0.71     1.37     7.66     0  01:30        1.37
  YS02006556           JUNCTION     0.69     1.32     7.64     0  01:30        1.32
  YS02006558           JUNCTION     0.72     1.36     7.62     0  01:30        1.36
  YS02006561           JUNCTION     0.17     0.47     7.13     0  01:29        0.47
  YS02163301           JUNCTION     0.67     1.65     8.17     0  01:45        1.61
  YS02163601           JUNCTION     0.72     1.66     8.05     0  02:07        1.58
  YS02164001           JUNCTION     0.65     1.56     8.02     0  02:07        1.46
  CC-1                 OUTFALL      0.00     0.00     0.00     0  00:00        0.00
  CC-2                 OUTFALL      0.00     0.00     0.00     0  00:00        0.00
  JK-1                 OUTFALL      0.00     0.00     0.00     0  00:00        0.00
  JK-2                 OUTFALL      0.00     0.00     0.00     0  00:00        0.00
  WSC                  OUTFALL      0.19     0.30     0.97     0  01:50        0.30
  CC-storage           STORAGE      0.91     1.48     6.98     0  02:22        1.48
  JK-storage           STORAGE      1.17     3.00     3.80     0  00:00        3.00
  
  
  *******************
  Node Inflow Summary
  *******************
  
  -------------------------------------------------------------------------------------------------
                                  Maximum  Maximum                  Lateral       Total        Flow
                                  Lateral    Total  Time of Max      Inflow      Inflow     Balance
                                   Inflow   Inflow   Occurrence      Volume      Volume       Error
  Node                 Type           LPS      LPS  days hr:min    10^6 ltr    10^6 ltr     Percent
  -------------------------------------------------------------------------------------------------
  WS02003060           JUNCTION     16.53   555.06     0  01:47       0.476        5.97       0.034
  WS02003066           JUNCTION      0.00   538.24     0  01:49           0         5.5       0.023
  WS02003067           JUNCTION      0.00   538.20     0  01:49           0         5.5       0.072
  WS02003069           JUNCTION      0.32   555.15     0  01:47     0.00922        5.98       0.057
  WS02003072           JUNCTION      0.00   554.88     0  01:48           0        5.97       0.107
  WS02003073           JUNCTION      1.82   556.51     0  01:49      0.0524        6.02       0.083
  WS02004401           JUNCTION      0.00  1786.04     0  00:00           0         5.6       0.189
  WS02004402           JUNCTION      0.00  1248.69     0  00:01           0        5.59       0.191
  WS02004403           JUNCTION      0.00   929.44     0  00:01           0        5.58       0.187
  WS02004404           JUNCTION      0.00   877.02     0  00:01           0        5.57       0.127
  WS02004405           JUNCTION      0.00   827.31     0  00:01           0        5.56       0.213
  WS02004406           JUNCTION      0.00   768.45     0  00:02           0        5.55       0.380
  WS02004407           JUNCTION      0.00   539.93     0  01:42           0        5.53       0.015
  WS02004409           JUNCTION      0.00   539.16     0  01:47           0        5.53       0.040
  WS02004410           JUNCTION      0.00   538.95     0  01:47           0        5.53       0.074
  WS02004411           JUNCTION      0.00   538.72     0  01:45           0        5.52       0.095
  WS02004412           JUNCTION      0.00   538.64     0  01:48           0        5.52       0.127
  WS02004413           JUNCTION      0.00   538.60     0  01:48           0        5.51       0.234
  WS02006109           JUNCTION      0.00  1446.81     0  00:00           0         5.5      -0.157
  WS02006110           JUNCTION      0.00   552.05     0  02:02           0        5.48      -0.996
  WS02006111           JUNCTION      0.00  1180.41     0  00:00           0        5.53      -0.776
  WS02006112           JUNCTION      0.00  2307.30     0  00:00           0        5.57       0.000
  WS02006113           JUNCTION      0.00   563.25     0  01:52           0        5.49      -0.689
  WS02006115           JUNCTION      0.00   953.54     0  00:00           0        5.54      -0.649
  WS02006116           JUNCTION      0.00  1264.47     0  00:00           0        5.58      -0.422
  WS02006228           JUNCTION      0.00   869.18     0  00:00           0        5.48      -0.051
  WS02006229           JUNCTION      0.00   550.72     0  02:02           0        5.47      -0.035
  WS02006230           JUNCTION     10.28   706.67     0  00:00       0.296        5.46       0.027
  WS02006231           JUNCTION      0.00   575.27     0  03:16           0        5.14      -0.050
  WS02006232           JUNCTION      0.00   573.69     0  03:16           0        5.15       0.158
  WS02006234           JUNCTION      0.00   568.92     0  03:16           0        5.13      -0.110
  WS02006235           JUNCTION      0.00   561.74     0  02:02           0        5.18       0.105
  WS02006238           JUNCTION      0.00   423.12     0  01:57           0         4.6      -0.074
  WS02006239           JUNCTION      0.00   422.78     0  04:12           0        4.56      -0.083
  WS02006240           JUNCTION      0.00   420.93     0  04:12           0        4.55      -0.021
  WS02006242           JUNCTION      0.00   420.97     0  04:12           0        4.54       0.040
  WS02006243           JUNCTION      0.00   422.66     0  04:12           0        4.53      -0.133
  WS02006245           JUNCTION      0.00   422.75     0  04:12           0        4.54       0.170
  WS02006247           JUNCTION      0.00   422.84     0  04:12           0        4.54       0.007
  WS02006248           JUNCTION      0.00   422.88     0  04:12           0        4.54       0.026
  WS02006249           JUNCTION      0.00   472.95     0  01:24           0        4.69       0.090
  WS02006251           JUNCTION      0.00   425.13     0  01:24           0         4.7       0.043
  WS02006252           JUNCTION      0.00   400.00     0  00:11           0        4.67      -0.463
  WS02006256           JUNCTION      0.00   300.00     0  00:06           0       0.854      -2.343
  WSF200               JUNCTION      0.00   538.31     0  01:49           0        5.49       0.007
  YS02001580           JUNCTION      0.00    74.97     0  01:18           0     0.00466      -0.048
  YS02001583           JUNCTION      0.00    98.16     0  01:17           0      0.0165      -3.127
  YS02001586           JUNCTION    276.55   276.67     0  01:43        1.73        1.74       0.068
  YS02001590           JUNCTION      0.00   276.67     0  01:44           0        1.73      -0.038
  YS02001593           JUNCTION      0.00   276.65     0  01:44           0        1.73       0.002
  YS02001596           JUNCTION      0.00   276.63     0  01:44           0        1.73      -0.010
  YS02001600           JUNCTION      0.00   276.75     0  01:43           0        1.73       0.011
  YS02001601           JUNCTION    436.68   708.01     0  01:28        2.27           4       0.007
  YS02001602           JUNCTION      0.00   511.39     0  01:18           0        3.38       0.010
  YS02001605           JUNCTION      0.00   511.27     0  01:18           0        3.38       0.011
  YS02001607           JUNCTION      0.00   511.16     0  01:18           0        3.38       0.048
  YS02001610           JUNCTION      0.00   515.54     0  01:17           0        3.38       0.072
  YS02001613           JUNCTION      0.00   514.57     0  01:18           0        3.38       0.047
  YS02001616           JUNCTION      0.00   515.69     0  01:18           0        3.39       0.009
  YS02001619           JUNCTION    455.31   908.73     0  01:33        2.68        6.07      -0.004
  YS02001622           JUNCTION      0.00   909.34     0  01:34           0        6.06      -0.004
  YS02001625           JUNCTION      0.00   910.66     0  01:34           0        6.06       0.170
  YS02001629           JUNCTION      0.00   911.11     0  01:34           0        6.05       0.006
  YS02001633           JUNCTION    334.29  1238.70     0  01:28        1.72        7.78       0.035
  YS02001641           JUNCTION      0.00  1239.05     0  01:29           0        7.79       0.037
  YS02001644           JUNCTION    278.72  1516.55     0  01:27        1.42         9.2       0.035
  YS02001647           JUNCTION      0.00  1516.71     0  01:27           0        9.18       0.006
  YS02001649           JUNCTION      0.00  1794.50     0  01:30           0        10.5       0.003
  YS02001652           JUNCTION      0.00   283.75     0  01:32           0        1.37      -0.171
  YS02001655           JUNCTION      0.00   286.08     0  02:18           0        1.37       0.108
  YS02001658           JUNCTION      0.00   265.94     0  01:27           0        1.37       0.001
  YS02001661           JUNCTION      0.00   265.97     0  01:27           0        1.37       0.026
  YS02001664           JUNCTION    265.98   265.98     0  01:27        1.37        1.37      -0.009
  YS02001745           JUNCTION    157.17   157.17     0  01:25       0.776       0.776       0.040
  YS02001748           JUNCTION      0.00   157.17     0  01:25           0       0.776      -0.055
  YS02001751           JUNCTION      0.00   173.45     0  02:15           0       0.777       0.133
  YS02001754           JUNCTION      0.00   182.83     0  01:30           0       0.775      -0.195
  YS02001757           JUNCTION      0.00  2500.16     0  01:29           0        14.1       0.030
  YS02001759           JUNCTION    229.44   574.12     0  01:29        1.14         2.8      -0.018
  YS02001762           JUNCTION      0.00   347.96     0  01:32           0        1.66       0.007
  YS02001765           JUNCTION      0.00   347.93     0  01:30           0        1.66       0.010
  YS02001767           JUNCTION      0.00   352.94     0  01:30           0        1.66      -0.002
  YS02001770           JUNCTION    332.42   367.87     0  01:30        1.66        1.72      -0.012
  YS02001774           JUNCTION      0.00    68.66     0  01:29           0      0.0947       1.279
  YS02001779           JUNCTION      0.00    48.32     0  01:37           0      0.0341       0.090
  YS02001783           JUNCTION      0.00   943.39     0  01:30           0        4.94      -0.001
  YS02001784           JUNCTION      0.00   943.32     0  01:30           0        4.94       0.002
  YS02001786           JUNCTION      0.00   943.29     0  01:30           0        4.94       0.006
  YS02001788           JUNCTION      0.00   943.51     0  01:30           0        4.94       0.004
  YS02001790           JUNCTION      0.00   943.81     0  01:31           0        4.94       0.027
  YS02001791           JUNCTION      0.00  1015.08     0  01:31           0        4.94      -0.018
  YS02001793           JUNCTION      0.00   948.99     0  01:31           0        4.94       0.003
  YS02001882           JUNCTION      0.00    78.94     0  01:15           0      0.0212       2.324
  YS02001884           JUNCTION      0.00   114.17     0  01:13           0      0.0631       3.228
  YS02001887           JUNCTION    234.83   273.39     0  01:17        1.16         1.2       0.349
  YS02001890           JUNCTION      0.00   257.36     0  01:22           0        1.15       0.339
  YS02001895           JUNCTION      0.00   267.23     0  01:16           0        1.15       0.215
  YS02001898           JUNCTION      0.00   267.29     0  01:16           0        1.15      -0.084
  YS02001901           JUNCTION      0.00   255.99     0  01:22           0        1.15       0.238
  YS02001904           JUNCTION      0.00   240.75     0  01:22           0        1.16       0.203
  YS02001907           JUNCTION      0.00   649.81     0  01:33           0        3.41       0.487
  YS02001910           JUNCTION      0.00   443.65     0  01:19           0        2.25       0.284
  YS02001915           JUNCTION    284.03   437.09     0  01:31        1.44        2.25       0.033
  YS02001918           JUNCTION      0.00   168.38     0  01:31           0        0.81       0.015
  YS02001920           JUNCTION      0.00   163.18     0  01:30           0       0.811       0.074
  YS02001923           JUNCTION      0.00   154.22     0  01:29           0       0.811      -0.016
  YS02001926           JUNCTION      0.00   154.26     0  01:28           0       0.811       0.038
  YS02001929           JUNCTION    154.28   154.28     0  01:28       0.811       0.811      -0.012
  YS02006553           JUNCTION      0.00   649.84     0  01:33           0        3.42       0.322
  YS02006556           JUNCTION      0.00   648.48     0  01:33           0        3.44       0.223
  YS02006558           JUNCTION    321.32   943.43     0  01:30         1.6        4.99       0.079
  YS02006561           JUNCTION      0.00   943.52     0  01:30           0        4.94      -0.025
  YS02163301           JUNCTION      0.00   910.33     0  01:31           0        6.06       0.024
  YS02163601           JUNCTION      0.00  1238.72     0  01:29           0        7.77       0.065
  YS02164001           JUNCTION      0.00  1238.83     0  01:29           0        7.77       0.033
  CC-1                 OUTFALL       0.00   683.00     0  00:06           0        5.81       0.000
  CC-2                 OUTFALL       0.00   683.00     0  00:06           0         4.5       0.000
  JK-1                 OUTFALL       0.00  1000.00     0  00:06           0       0.166       0.000
  JK-2                 OUTFALL       0.00  1000.00     0  01:15           0        4.05       0.000
  WSC                  OUTFALL       0.00   556.36     0  01:50           0        6.01       0.000
  CC-storage           STORAGE       0.00  2485.10     0  01:28           0        16.4      -0.177
  JK-storage           STORAGE       0.00   949.84     0  01:31           0        5.09      -0.346
  
  
  **********************
  Node Surcharge Summary
  **********************
  
  Surcharging occurs when water rises above the top of the highest conduit.
  ---------------------------------------------------------------------
                                               Max. Height   Min. Depth
                                   Hours       Above Crown    Below Rim
  Node                 Type      Surcharged         Meters       Meters
  ---------------------------------------------------------------------
  WS02004404           JUNCTION        0.02          0.046        2.734
  WS02006109           JUNCTION        2.87          0.416        1.404
  WS02006110           JUNCTION        0.50          0.544        1.306
  WS02006111           JUNCTION        0.01          0.856        1.014
  WS02006112           JUNCTION        0.54          1.680        0.000
  WS02006113           JUNCTION        0.01          0.705        1.225
  WS02006115           JUNCTION        0.01          0.682        1.568
  WS02006116           JUNCTION        0.01          0.053        2.237
  WS02006228           JUNCTION        2.86          0.810        1.390
  WS02006229           JUNCTION        2.87          0.510        1.940
  WS02006230           JUNCTION        0.51          0.207        1.363
  WS02006231           JUNCTION        0.58          0.346        1.184
  WS02006232           JUNCTION        2.89          0.509        0.971
  WS02006234           JUNCTION        0.77          0.581        0.659
  WS02006235           JUNCTION        2.83          0.652        0.638
  WS02006238           JUNCTION        2.86          0.676        0.754
  WS02006239           JUNCTION        2.85          0.641        0.649
  WS02006240           JUNCTION        2.85          0.926        0.464
  WS02006242           JUNCTION        2.91          0.766        0.054
  WS02006243           JUNCTION        2.85          0.672        0.098
  WS02006245           JUNCTION        2.84          0.592        0.258
  WS02006247           JUNCTION        2.84          0.533        0.227
  WS02006248           JUNCTION        2.84          0.380        0.000
  WS02006249           JUNCTION        2.83          0.390        0.000
  WS02006251           JUNCTION        0.62          0.908        0.272
  WS02006252           JUNCTION        3.16          1.100        0.000
  WS02006256           JUNCTION        6.22          2.050        0.000
  YS02001580           JUNCTION        0.60          0.450        0.000
  YS02001583           JUNCTION        0.66          0.500        0.000
  YS02001586           JUNCTION        1.22          0.510        0.000
  YS02001590           JUNCTION        1.51          0.748        0.002
  YS02001593           JUNCTION        1.51          0.712        0.128
  YS02001596           JUNCTION        1.83          0.950        0.120
  YS02001600           JUNCTION        1.91          1.190        0.000
  YS02001601           JUNCTION        2.07          1.440        0.000
  YS02001602           JUNCTION        2.02          1.270        0.000
  YS02001605           JUNCTION        2.00          1.180        0.000
  YS02001607           JUNCTION        1.40          0.576        0.104
  YS02001610           JUNCTION        1.51          0.632        0.048
  YS02001613           JUNCTION        1.37          0.640        0.060
  YS02001616           JUNCTION        1.24          0.610        0.000
  YS02001619           JUNCTION        1.19          0.451        0.159
  YS02001622           JUNCTION        1.19          0.416        0.204
  YS02001625           JUNCTION        1.78          0.780        0.000
  YS02001629           JUNCTION        1.03          0.275        0.195
  YS02001633           JUNCTION        1.79          0.655        0.405
  YS02001641           JUNCTION        1.64          0.508        0.592
  YS02001644           JUNCTION        1.50          0.404        0.516
  YS02001647           JUNCTION        0.62          0.127        0.773
  YS02001649           JUNCTION        0.91          0.216        0.834
  YS02001757           JUNCTION        1.11          0.236        0.974
  YS02001759           JUNCTION        0.78          0.139        1.071
  YS02001762           JUNCTION        0.70          0.107        1.043
  YS02001765           JUNCTION        0.48          0.065        1.035
  YS02001767           JUNCTION        0.07          0.022        1.008
  YS02001774           JUNCTION        0.67          0.084        0.966
  YS02001783           JUNCTION        0.35          0.082        1.518
  YS02001784           JUNCTION        0.19          0.032        1.458
  YS02001884           JUNCTION        0.05          0.008        0.862
  YS02001887           JUNCTION        0.25          0.098        0.852
  YS02001890           JUNCTION        0.35          0.127        0.633
  YS02001901           JUNCTION        0.19          0.065        0.805
  YS02001904           JUNCTION        0.14          0.042        0.808
  YS02001907           JUNCTION        1.16          0.371        0.579
  YS02001910           JUNCTION        0.48          0.176        0.924
  YS02006553           JUNCTION        1.23          0.372        0.818
  YS02006556           JUNCTION        0.71          0.285        1.065
  YS02006558           JUNCTION        0.68          0.257        1.143
  YS02163301           JUNCTION        1.77          0.654        0.376
  YS02163601           JUNCTION        1.81          0.656        0.424
  YS02164001           JUNCTION        1.68          0.564        0.536
  
  
  *********************
  Node Flooding Summary
  *********************
  
  Flooding refers to all water that overflows a node, whether it ponds or not.
  --------------------------------------------------------------------------
                                                             Total   Maximum
                                 Maximum   Time of Max       Flood    Ponded
                        Hours       Rate    Occurrence      Volume     Depth
  Node                 Flooded       LPS   days hr:min    10^6 ltr    Meters
  --------------------------------------------------------------------------
  WS02006112              0.01   1405.86      0  00:00       0.047     0.000
  WS02006248              0.01     11.73      0  03:16       0.000     0.000
  WS02006249              0.59    160.94      0  01:24       0.143     0.000
  WS02006252              0.01    267.11      0  01:08       0.000     0.000
  WS02006256              0.79    289.71      0  04:14       0.280     0.000
  YS02001580              0.01     64.51      0  01:18       0.000     0.000
  YS02001583              0.01     24.32      0  01:18       0.000     0.000
  YS02001586              0.01     43.20      0  01:18       0.000     0.000
  YS02001600              0.01      0.51      0  01:18       0.000     0.000
  YS02001601              1.07    257.91      0  01:44       0.618     0.000
  YS02001602              0.02     32.63      0  02:07       0.000     0.000
  YS02001605              0.01      0.05      0  02:07       0.000     0.000
  YS02001616              0.01      0.75      0  02:07       0.000     0.000
  YS02001625              0.01      0.50      0  02:07       0.000     0.000
  
  
  **********************
  Storage Volume Summary
  **********************
  
  --------------------------------------------------------------------------------------------------
                         Average     Avg  Evap Exfil       Maximum     Max    Time of Max    Maximum
                          Volume    Pcnt  Pcnt  Pcnt        Volume    Pcnt     Occurrence    Outflow
  Storage Unit           1000 m3    Full  Loss  Loss       1000 m3    Full    days hr:min        LPS
  --------------------------------------------------------------------------------------------------
  CC-storage               2.540      40     0     0         4.118      64       0  02:22    1766.00
  JK-storage               0.059      20     0     0         0.151      52       0  00:00    2300.00
  
  
  ***********************
  Outfall Loading Summary
  ***********************
  
  -----------------------------------------------------------
                         Flow       Avg       Max       Total
                         Freq      Flow      Flow      Volume
  Outfall Node           Pcnt       LPS       LPS    10^6 ltr
  -----------------------------------------------------------
  CC-1                  53.52    683.00    683.00       5.808
  CC-2                  41.04    683.00    683.00       4.504
  JK-1                   1.54   1000.00   1000.00       0.166
  JK-2                  25.26   1000.00   1000.00       4.051
  WSC                   99.99    279.35    556.36       6.014
  -----------------------------------------------------------
  System                44.27   3645.35    556.36      20.544
  
  
  ********************
  Link Flow Summary
  ********************
  
  -----------------------------------------------------------------------------
                                 Maximum  Time of Max   Maximum    Max/    Max/
                                  |Flow|   Occurrence   |Veloc|    Full    Full
  Link                 Type          LPS  days hr:min     m/sec    Flow   Depth
  -----------------------------------------------------------------------------
  1                    CONDUIT    556.36     0  01:50      2.83    0.19    0.30
  WS02003060WS02003069 CONDUIT    554.83     0  01:47      1.64    0.22    0.34
  WS02003066WSF200     CONDUIT    538.31     0  01:49      2.85    0.09    0.22
  WS02003067WS02003066 CONDUIT    538.24     0  01:49      1.21    0.17    0.42
  WS02003069WS02003072 CONDUIT    554.88     0  01:48      1.37    0.27    0.39
  WS02003072WS02003073 CONDUIT    554.69     0  01:49      1.44    1.20    0.37
  WS02004401WS02004402 CONDUIT   1248.69     0  00:01      2.52    1.50    0.89
  WS02004402WS02004403 CONDUIT    929.44     0  00:01      2.21    1.34    0.91
  WS02004403WS02004404 CONDUIT    877.02     0  00:01      2.01    0.63    0.96
  WS02004404WS02004405 CONDUIT    827.31     0  00:01      2.30    8.11    0.98
  WS02004405WS02004406 CONDUIT    768.45     0  00:02      2.19    1.52    0.96
  WS02004406WS02004407 CONDUIT    539.93     0  01:42      1.04    0.24    0.63
  WS02004407WS02004409 CONDUIT    539.16     0  01:47      2.06    0.19    0.48
  WS02004409WS02004410 CONDUIT    538.95     0  01:47      1.39    0.70    0.68
  WS02004410WS02004411 CONDUIT    538.72     0  01:45      1.32    0.74    0.69
  WS02004411WS02004412 CONDUIT    538.64     0  01:48      1.28    0.77    0.69
  WS02004412WS02004413 CONDUIT    538.60     0  01:48      1.25    0.36    0.78
  WS02004413WS02003067 CONDUIT    538.20     0  01:49      1.11    0.23    0.59
  WS02006109WS02006110 CONDUIT   1446.81     0  00:00      2.88    2.78    1.00
  WS02006110WS02006113 CONDUIT    563.25     0  01:52      1.36    0.51    1.00
  WS02006111WS02006112 CONDUIT   2307.30     0  00:00      9.18    1.10    1.00
  WS02006112WS02006115 CONDUIT    953.54     0  00:00      1.24    0.56    1.00
  WS02006113WS02006111 CONDUIT   1180.41     0  00:00      2.47    1.41    1.00
  WS02006115WS02006116 CONDUIT   1264.47     0  00:00      1.74    1.62    1.00
  WS02006116WS02004401 CONDUIT   1786.04     0  00:00      2.94    2.46    0.86
  WS02006228WS02006109 CONDUIT    869.18     0  00:00      1.91    3.80    1.00
  WS02006229WS02006228 CONDUIT    550.18     0  02:02      1.09    1.82    1.00
  WS02006230WS02006229 CONDUIT    696.39     0  00:00      1.89   15.50    1.00
  WS02006231WS02006230 CONDUIT    582.81     0  03:16      1.91    8.84    1.00
  WS02006232WS02006231 CONDUIT    575.27     0  03:16      1.80    1.21    1.00
  WS02006234WS02006232 CONDUIT    573.69     0  03:16      1.49    1.16    1.00
  WS02006235WS02006234 CONDUIT    568.92     0  03:16      1.48    6.00    1.00
  WS02006238WS02006235 CONDUIT    424.33     0  03:16      1.71    0.95    1.00
  WS02006239WS02006238 CONDUIT    423.12     0  01:57      1.10    1.35    1.00
  WS02006240WS02006239 CONDUIT    422.78     0  04:12      1.15    1.33    1.00
  WS02006242WS02006240 CONDUIT    420.93     0  04:12      1.09    1.67    1.00
  WS02006243WS02006242 CONDUIT    420.97     0  04:12      1.19    0.90    1.00
  WS02006245WS02006243 CONDUIT    422.66     0  04:12      1.36    1.25    1.00
  WS02006247WS02006245 CONDUIT    422.75     0  04:12      1.32    3.35    1.00
  WS02006248WS02006247 CONDUIT    422.84     0  04:12      1.30    0.92    1.00
  WS02006249WS02006248 CONDUIT    422.88     0  04:12      1.37    2.32    1.00
  WS02006251WS02006249 CONDUIT    472.95     0  01:24      1.78    1.36    1.00
  WS02006252WS02006251 CONDUIT    425.13     0  01:24     27.17    1.56    1.00
  WS02006256WS02006235 CONDUIT    286.74     0  00:06      4.12    3.03    1.00
  WSF200WS02003060     CONDUIT    538.53     0  01:47      2.06    0.12    0.28
  YS02001580YS02001583 CONDUIT     74.97     0  01:18      0.51    0.29    1.00
  YS02001583YS02001586 CONDUIT     98.16     0  01:17      0.44    0.15    1.00
  YS02001586YS02001590 CONDUIT    276.67     0  01:44      1.26    0.48    1.00
  YS02001590YS02001593 CONDUIT    276.65     0  01:44      1.05    1.74    1.00
  YS02001593YS02001596 CONDUIT    276.63     0  01:44      1.70    0.44    1.00
  YS02001596YS02001600 CONDUIT    276.75     0  01:43      1.23    0.54    1.00
  YS02001600YS02001601 CONDUIT    276.63     0  01:44      0.98    0.48    1.00
  YS02001601YS02001602 CONDUIT    511.39     0  01:18      1.81    1.85    1.00
  YS02001602YS02001605 CONDUIT    511.27     0  01:18      1.81   10.82    1.00
  YS02001605YS02001607 CONDUIT    511.16     0  01:18      1.81    2.80    1.00
  YS02001607YS02001610 CONDUIT    515.54     0  01:17      0.74    0.49    1.00
  YS02001610YS02001613 CONDUIT    514.57     0  01:18      0.67    0.59    1.00
  YS02001613YS02001616 CONDUIT    515.69     0  01:18      0.72    0.44    1.00
  YS02001616YS02001619 CONDUIT    515.14     0  01:18      0.78    0.89    1.00
  YS02001619YS02001622 CONDUIT    909.34     0  01:34      1.65    1.34    1.00
  YS02001622YS02001625 CONDUIT    910.66     0  01:34      1.16    0.49    1.00
  YS02001625YS02001629 CONDUIT    911.11     0  01:34      1.16    0.43    1.00
  YS02001629YS02163301 CONDUIT    910.33     0  01:31      1.16    1.12    1.00
  YS02001633YS02163601 CONDUIT   1238.72     0  01:29      1.58    1.30    1.00
  YS02001641YS02001644 CONDUIT   1239.17     0  01:29      1.58    4.01    1.00
  YS02001644YS02001647 CONDUIT   1516.71     0  01:27      2.06    0.89    1.00
  YS02001647YS02001649 CONDUIT   1517.25     0  01:28      2.32    0.80    1.00
  YS02001649YS02001757 CONDUIT   1779.41     0  01:30      2.54    1.08    1.00
  YS02001652YS02001649 CONDUIT    284.55     0  01:32      1.22    0.14    1.00
  YS02001655YS02001652 CONDUIT    283.75     0  01:32      1.65    0.14    0.87
  YS02001658YS02001655 CONDUIT    286.08     0  02:18      1.83    0.12    0.59
  YS02001661YS02001658 CONDUIT    265.94     0  01:27      2.04    0.10    0.33
  YS02001664YS02001661 CONDUIT    265.97     0  01:27      1.82    0.08    0.24
  YS02001745YS02001748 CONDUIT    157.17     0  01:25      1.83    0.06    0.24
  YS02001748YS02001751 CONDUIT    173.45     0  02:15      1.53    0.09    0.51
  YS02001751YS02001754 CONDUIT    182.83     0  01:30      1.50    0.09    0.74
  YS02001754YS02001757 CONDUIT    198.48     0  01:21      0.97    0.08    0.95
  YS02001757CaochengTiaoxuchi CONDUIT   2485.10     0  01:28      3.75    1.08    1.00
  YS02001759YS02001757 CONDUIT    564.41     0  01:29      1.27    0.40    1.00
  YS02001762YS02001759 CONDUIT    353.15     0  01:29      0.72    0.41    1.00
  YS02001765YS02001762 CONDUIT    347.96     0  01:32      0.84    0.33    1.00
  YS02001767YS02001765 CONDUIT    347.93     0  01:30      0.93    0.44    1.00
  YS02001770YS02001767 CONDUIT    352.94     0  01:30      0.87    1.40    1.00
  YS02001774YS02001770 CONDUIT     68.66     0  01:29      0.67    0.04    0.99
  YS02001779YS02001774 CONDUIT     48.32     0  01:37      0.16    0.02    0.91
  YS02001783YS02001784 CONDUIT    943.32     0  01:30      1.88    1.30    1.00
  YS02001784YS02001785 CONDUIT    943.29     0  01:30      1.95    2.20    0.92
  YS02001786YS02001788 CONDUIT    943.51     0  01:30      2.33    1.82    0.75
  YS02001788YS02001790 CONDUIT    943.81     0  01:31      2.45    0.70    0.72
  YS02001790YS02001791 CONDUIT   1015.08     0  01:31      3.11    1.10    0.62
  YS02001791YS02001793 CONDUIT    948.99     0  01:31      6.18    0.41    0.35
  YS02001793JiankangQianchi CONDUIT    949.84     0  01:31      1.96    0.08    0.59
  YS02001882YS02001884 CONDUIT     78.94     0  01:15      0.39    0.09    0.99
  YS02001884YS02001887 CONDUIT    114.17     0  01:13      0.35    0.15    1.00
  YS02001887YS02001890 CONDUIT    257.36     0  01:22      0.46    0.44    1.00
  YS02001890YS02001895 CONDUIT    267.23     0  01:16      0.42    0.12    0.97
  YS02001895YS02001898 CONDUIT    267.29     0  01:16      0.71    0.46    0.92
  YS02001898YS02001901 CONDUIT    255.99     0  01:22      0.70    0.17    0.97
  YS02001901YS02001904 CONDUIT    240.75     0  01:22      0.39    0.37    1.00
  YS02001904YS02001907 CONDUIT    228.25     0  01:17      0.33    0.08    1.00
  YS02001907YS02006553 CONDUIT    649.84     0  01:33      0.72    0.76    1.00
  YS02001910YS02001907 CONDUIT    436.56     0  01:32      0.65    0.25    1.00
  YS02001915YS02001910 CONDUIT    443.65     0  01:19      1.22    0.22    0.99
  YS02001918YS02001915 CONDUIT    172.34     0  01:32      0.47    0.10    0.80
  YS02001920YS02001918 CONDUIT    168.38     0  01:31      0.71    0.16    0.66
  YS02001923YS02001920 CONDUIT    163.18     0  01:30      0.79    0.07    0.56
  YS02001926YS02001923 CONDUIT    154.22     0  01:29      0.91    0.22    0.28
  YS02001929YS02001926 CONDUIT    154.26     0  01:28      0.99    0.07    0.25
  YS02006553YS02006556 CONDUIT    648.48     0  01:33      0.87    0.55    1.00
  YS02006556YS02006558 CONDUIT    649.20     0  01:33      0.83    0.51    1.00
  YS02006558YS02006561 CONDUIT    943.52     0  01:30      3.55    2.09    0.89
  YS02006561YS02001783 CONDUIT    943.39     0  01:30      2.21    0.49    0.79
  YS02163301YS02001633 CONDUIT    910.47     0  01:31      1.16    0.86    1.00
  YS02163601YS02164001 CONDUIT   1238.83     0  01:29      1.58    1.10    1.00
  YS02164001YS02001641 CONDUIT   1239.05     0  01:29      1.58    1.69    1.00
  CC-R1                PUMP       683.00     0  00:06              1.00
  CC-R2                PUMP       683.00     0  00:06              1.00
  CC-S1                PUMP       200.00     0  00:11              1.00
  CC-S2                PUMP       200.00     0  00:06              1.00
  JK-R1                PUMP      1000.00     0  00:06              1.00
  JK-R2                PUMP      1000.00     0  01:15              1.00
  JK-S                 PUMP       300.00     0  00:06              1.00
  
  
  ***************************
  Flow Classification Summary
  ***************************
  
  -------------------------------------------------------------------------------------
                      Adjusted    ---------- Fraction of Time in Flow Class ---------- 
                       /Actual         Up    Down  Sub   Sup   Up    Down  Norm  Inlet 
  Conduit               Length    Dry  Dry   Dry   Crit  Crit  Crit  Crit  Ltd   Ctrl  
  -------------------------------------------------------------------------------------
  1                       1.00   0.00  0.00  0.00  0.00  1.00  0.00  0.00  0.43  0.00
  WS02003060WS02003069    1.00   0.00  0.00  0.00  0.97  0.03  0.00  0.00  0.59  0.00
  WS02003066WSF200        1.00   0.04  0.00  0.00  0.00  0.96  0.00  0.00  0.90  0.00
  WS02003067WS02003066    1.00   0.02  0.02  0.00  0.97  0.00  0.00  0.00  0.00  0.00
  WS02003069WS02003072    1.00   0.00  0.00  0.00  1.00  0.00  0.00  0.00  0.61  0.00
  WS02003072WS02003073    1.00   0.00  0.00  0.00  0.00  0.00  0.00  1.00  0.00  0.00
  WS02004401WS02004402    1.00   0.00  0.00  0.00  1.00  0.00  0.00  0.00  0.00  0.00
  WS02004402WS02004403    1.00   0.00  0.00  0.00  1.00  0.00  0.00  0.00  0.00  0.00
  WS02004403WS02004404    1.00   0.00  0.00  0.00  1.00  0.00  0.00  0.00  0.00  0.00
  WS02004404WS02004405    1.00   0.00  0.00  0.00  1.00  0.00  0.00  0.00  0.01  0.00
  WS02004405WS02004406    1.00   0.00  0.00  0.00  1.00  0.00  0.00  0.00  0.00  0.00
  WS02004406WS02004407    1.00   0.00  0.00  0.00  1.00  0.00  0.00  0.00  0.00  0.00
  WS02004407WS02004409    1.00   0.00  0.00  0.00  0.99  0.01  0.00  0.00  0.99  0.00
  WS02004409WS02004410    1.00   0.00  0.00  0.00  1.00  0.00  0.00  0.00  0.00  0.00
  WS02004410WS02004411    1.00   0.00  0.00  0.00  1.00  0.00  0.00  0.00  0.00  0.00
  WS02004411WS02004412    1.00   0.00  0.00  0.00  1.00  0.00  0.00  0.00  0.00  0.00
  WS02004412WS02004413    1.00   0.00  0.00  0.00  0.99  0.00  0.00  0.00  0.00  0.00
  WS02004413WS02003067    1.00   0.01  0.01  0.00  0.00  0.00  0.98  0.00  0.00  0.00
  WS02006109WS02006110    1.00   0.00  0.00  0.00  1.00  0.00  0.00  0.00  0.00  0.00
  WS02006110WS02006113    1.00   0.00  0.00  0.00  1.00  0.00  0.00  0.00  0.00  0.00
  WS02006111WS02006112    1.00   0.00  0.00  0.00  1.00  0.00  0.00  0.00  1.00  0.00
  WS02006112WS02006115    1.00   0.00  0.00  0.00  1.00  0.00  0.00  0.00  0.00  0.00
  WS02006113WS02006111    1.00   0.00  0.00  0.00  0.00  1.00  0.00  0.00  0.15  0.00
  WS02006115WS02006116    1.00   0.00  0.00  0.00  1.00  0.00  0.00  0.00  0.00  0.00
  WS02006116WS02004401    1.00   0.00  0.00  0.00  1.00  0.00  0.00  0.00  0.00  0.00
  WS02006228WS02006109    1.00   0.00  0.00  0.00  1.00  0.00  0.00  0.00  0.00  0.00
  WS02006229WS02006228    1.00   0.00  0.00  0.00  1.00  0.00  0.00  0.00  0.00  0.00
  WS02006230WS02006229    1.00   0.00  0.00  0.00  1.00  0.00  0.00  0.00  0.02  0.00
  WS02006231WS02006230    1.00   0.00  0.00  0.00  0.57  0.00  0.43  0.00  0.00  0.00
  WS02006232WS02006231    1.00   0.00  0.00  0.00  0.99  0.00  0.01  0.00  0.00  0.00
  WS02006234WS02006232    1.00   0.00  0.00  0.00  1.00  0.00  0.00  0.00  0.07  0.00
  WS02006235WS02006234    1.00   0.00  0.00  0.00  0.87  0.00  0.12  0.00  0.00  0.00
  WS02006238WS02006235    1.00   0.00  0.00  0.00  1.00  0.00  0.00  0.00  0.00  0.00
  WS02006239WS02006238    1.00   0.00  0.00  0.00  1.00  0.00  0.00  0.00  0.23  0.00
  WS02006240WS02006239    1.00   0.01  0.00  0.00  0.79  0.00  0.00  0.20  0.02  0.00
  WS02006242WS02006240    1.00   0.02  0.00  0.00  0.98  0.00  0.01  0.00  0.00  0.00
  WS02006243WS02006242    1.00   0.02  0.00  0.00  0.97  0.00  0.00  0.01  0.53  0.00
  WS02006245WS02006243    1.00   0.01  0.00  0.00  0.86  0.00  0.00  0.13  0.00  0.00
  WS02006247WS02006245    1.00   0.01  0.00  0.00  0.97  0.00  0.00  0.02  0.00  0.00
  WS02006248WS02006247    1.00   0.01  0.00  0.00  0.97  0.00  0.00  0.02  0.47  0.00
  WS02006249WS02006248    1.00   0.01  0.00  0.00  0.69  0.00  0.30  0.00  0.00  0.00
  WS02006251WS02006249    1.00   0.01  0.00  0.00  0.99  0.01  0.00  0.00  0.49  0.00
  WS02006252WS02006251    1.00   0.01  0.23  0.00  0.12  0.00  0.64  0.00  0.00  0.00
  WS02006256WS02006235    1.00   0.00  0.00  0.00  0.98  0.01  0.00  0.00  0.01  0.00
  WSF200WS02003060        1.00   0.00  0.04  0.00  0.26  0.70  0.00  0.00  0.57  0.00
  YS02001580YS02001583    1.00   0.14  0.40  0.00  0.46  0.00  0.00  0.00  0.66  0.00
  YS02001583YS02001586    1.00   0.28  0.20  0.00  0.51  0.00  0.01  0.00  0.66  0.00
  YS02001586YS02001590    1.00   0.12  0.00  0.00  0.66  0.02  0.00  0.20  0.25  0.00
  YS02001590YS02001593    1.00   0.12  0.00  0.00  0.42  0.00  0.46  0.00  0.00  0.00
  YS02001593YS02001596    1.00   0.12  0.00  0.00  0.42  0.00  0.00  0.45  0.01  0.00
  YS02001596YS02001600    1.00   0.12  0.00  0.00  0.45  0.01  0.00  0.42  0.02  0.00
  YS02001600YS02001601    1.00   0.12  0.00  0.00  0.88  0.00  0.00  0.00  0.56  0.00
  YS02001601YS02001602    1.00   0.12  0.00  0.00  0.88  0.00  0.00  0.00  0.00  0.00
  YS02001602YS02001605    1.00   0.12  0.00  0.00  0.88  0.00  0.00  0.00  0.00  0.00
  YS02001605YS02001607    1.00   0.12  0.00  0.00  0.88  0.00  0.00  0.00  0.00  0.00
  YS02001607YS02001610    1.00   0.12  0.00  0.00  0.88  0.00  0.00  0.00  0.00  0.00
  YS02001610YS02001613    1.00   0.12  0.00  0.00  0.88  0.00  0.00  0.00  0.00  0.00
  YS02001613YS02001616    1.00   0.12  0.00  0.00  0.88  0.00  0.00  0.00  0.00  0.00
  YS02001616YS02001619    1.00   0.12  0.00  0.00  0.88  0.00  0.00  0.00  0.00  0.00
  YS02001619YS02001622    1.00   0.12  0.00  0.00  0.88  0.00  0.00  0.00  0.33  0.00
  YS02001622YS02001625    1.00   0.12  0.00  0.00  0.88  0.00  0.00  0.00  0.01  0.00
  YS02001625YS02001629    1.00   0.12  0.01  0.00  0.43  0.00  0.44  0.00  0.00  0.00
  YS02001629YS02163301    1.00   0.12  0.00  0.00  0.88  0.00  0.00  0.00  0.00  0.00
  YS02001633YS02163601    1.00   0.12  0.00  0.00  0.88  0.00  0.00  0.00  0.00  0.00
  YS02001641YS02001644    1.00   0.12  0.00  0.00  0.88  0.00  0.00  0.00  0.00  0.00
  YS02001644YS02001647    1.00   0.12  0.00  0.00  0.88  0.00  0.00  0.00  0.00  0.00
  YS02001647YS02001649    1.00   0.12  0.00  0.00  0.62  0.26  0.00  0.00  0.56  0.00
  YS02001649YS02001757    1.00   0.00  0.12  0.00  0.70  0.18  0.00  0.00  0.11  0.00
  YS02001652YS02001649    1.00   0.12  0.00  0.00  0.87  0.01  0.00  0.00  0.57  0.00
  YS02001655YS02001652    1.00   0.12  0.00  0.00  0.45  0.01  0.00  0.42  0.04  0.00
  YS02001658YS02001655    1.00   0.12  0.00  0.00  0.72  0.16  0.00  0.00  0.70  0.00
  YS02001661YS02001658    1.00   0.12  0.00  0.00  0.41  0.47  0.00  0.00  0.82  0.00
  YS02001664YS02001661    1.00   0.12  0.00  0.00  0.45  0.43  0.00  0.00  0.87  0.00
  YS02001745YS02001748    1.00   0.12  0.00  0.00  0.17  0.05  0.00  0.65  0.13  0.00
  YS02001748YS02001751    1.00   0.12  0.00  0.00  0.74  0.14  0.00  0.00  0.68  0.00
  YS02001751YS02001754    1.00   0.12  0.00  0.00  0.42  0.01  0.00  0.45  0.03  0.00
  YS02001754YS02001757    1.00   0.00  0.12  0.00  0.88  0.00  0.00  0.00  0.62  0.00
  YS02001757CaochengTiaoxuchi    1.00   0.00  0.00  0.00  0.92  0.08  0.00  0.00  0.64  0.00
  YS02001759YS02001757    1.00   0.00  0.12  0.00  0.88  0.00  0.00  0.00  0.49  0.00
  YS02001762YS02001759    1.00   0.12  0.00  0.00  0.88  0.00  0.00  0.00  0.01  0.00
  YS02001765YS02001762    1.00   0.12  0.00  0.00  0.88  0.00  0.00  0.00  0.52  0.00
  YS02001767YS02001765    1.00   0.12  0.00  0.00  0.88  0.00  0.00  0.00  0.01  0.00
  YS02001770YS02001767    1.00   0.12  0.00  0.00  0.88  0.00  0.00  0.00  0.00  0.00
  YS02001774YS02001770    1.00   0.12  0.00  0.00  0.73  0.00  0.15  0.00  0.00  0.00
  YS02001779YS02001774    1.00   0.12  0.34  0.00  0.54  0.00  0.00  0.00  0.60  0.00
  YS02001783YS02001784    1.00   0.13  0.00  0.00  0.87  0.00  0.00  0.00  0.56  0.00
  YS02001784YS02001785    1.00   0.13  0.00  0.00  0.87  0.00  0.00  0.00  0.41  0.00
  YS02001786YS02001788    1.00   0.13  0.00  0.00  0.40  0.47  0.00  0.00  0.00  0.00
  YS02001788YS02001790    1.00   0.13  0.00  0.00  0.16  0.71  0.00  0.00  0.60  0.00
  YS02001790YS02001791    1.00   0.13  0.00  0.00  0.00  0.87  0.00  0.00  0.20  0.00
  YS02001791YS02001793    1.00   0.13  0.00  0.00  0.00  0.87  0.00  0.00  0.00  0.00
  YS02001793JiankangQianchi    1.00   0.00  0.13  0.00  0.87  0.00  0.00  0.00  0.85  0.00
  YS02001882YS02001884    1.00   0.12  0.00  0.00  0.88  0.00  0.00  0.00  0.00  0.00
  YS02001884YS02001887    1.00   0.12  0.00  0.00  0.88  0.00  0.00  0.00  0.00  0.00
  YS02001887YS02001890    1.00   0.12  0.00  0.00  0.88  0.00  0.00  0.00  0.00  0.00
  YS02001890YS02001895    1.00   0.12  0.00  0.00  0.88  0.00  0.00  0.00  0.00  0.00
  YS02001895YS02001898    1.00   0.12  0.00  0.00  0.87  0.00  0.01  0.00  0.00  0.00
  YS02001898YS02001901    1.00   0.12  0.00  0.00  0.87  0.00  0.00  0.00  0.00  0.00
  YS02001901YS02001904    1.00   0.12  0.00  0.00  0.88  0.00  0.00  0.00  0.00  0.00
  YS02001904YS02001907    1.00   0.12  0.01  0.00  0.88  0.00  0.00  0.00  0.00  0.00
  YS02001907YS02006553    1.00   0.12  0.00  0.00  0.88  0.00  0.00  0.00  0.00  0.00
  YS02001910YS02001907    1.00   0.12  0.00  0.00  0.88  0.00  0.00  0.00  0.00  0.00
  YS02001915YS02001910    1.00   0.12  0.00  0.00  0.87  0.01  0.00  0.00  0.00  0.00
  YS02001918YS02001915    1.00   0.12  0.01  0.00  0.88  0.00  0.00  0.00  0.63  0.00
  YS02001920YS02001918    1.00   0.12  0.00  0.00  0.88  0.00  0.00  0.00  0.00  0.00
  YS02001923YS02001920    1.00   0.12  0.00  0.00  0.88  0.00  0.00  0.00  0.79  0.00
  YS02001926YS02001923    1.00   0.12  0.00  0.00  0.01  0.00  0.87  0.00  0.00  0.00
  YS02001929YS02001926    1.00   0.12  0.00  0.00  0.88  0.00  0.00  0.00  0.87  0.00
  YS02006553YS02006556    1.00   0.12  0.00  0.00  0.88  0.00  0.00  0.00  0.00  0.00
  YS02006556YS02006558    1.00   0.12  0.00  0.00  0.88  0.00  0.00  0.00  0.00  0.00
  YS02006558YS02006561    1.00   0.13  0.00  0.00  0.00  0.87  0.00  0.00  0.12  0.00
  YS02006561YS02001783    1.00   0.13  0.00  0.00  0.28  0.59  0.00  0.00  0.62  0.00
  YS02163301YS02001633    1.00   0.12  0.00  0.00  0.88  0.00  0.00  0.00  0.00  0.00
  YS02163601YS02164001    1.00   0.12  0.00  0.00  0.88  0.00  0.00  0.00  0.00  0.00
  YS02164001YS02001641    1.00   0.12  0.00  0.00  0.88  0.00  0.00  0.00  0.00  0.00
  
  
  *************************
  Conduit Surcharge Summary
  *************************
  
  ----------------------------------------------------------------------------
                                                           Hours        Hours 
                         --------- Hours Full --------   Above Full   Capacity
  Conduit                Both Ends  Upstream  Dnstream   Normal Flow   Limited
  ----------------------------------------------------------------------------
  WS02003072WS02003073        0.01      0.01      0.01      0.78         0.01
  WS02004401WS02004402        0.01      0.01      0.01      0.01         0.01
  WS02004402WS02004403        0.01      0.01      0.01      0.02         0.01
  WS02004403WS02004404        0.01      0.01      0.01      0.01         0.01
  WS02004404WS02004405        0.01      0.01      0.01      3.68         0.01
  WS02004405WS02004406        0.01      0.01      0.01      0.38         0.01
  WS02006109WS02006110        0.50      0.50      2.89      0.55         0.01
  WS02006110WS02006113        0.01      0.01      2.88      0.01         0.01
  WS02006111WS02006112        0.01      0.01      3.10      0.01         0.01
  WS02006112WS02006115        0.01      0.01      0.54      0.01         0.01
  WS02006113WS02006111        0.01      0.01      0.01      0.01         0.01
  WS02006115WS02006116        0.01      0.01      0.01      0.01         0.01
  WS02006116WS02004401        0.01      0.01      0.01      0.02         0.01
  WS02006228WS02006109        2.86      2.88      2.87      3.27         2.86
  WS02006229WS02006228        2.86      2.87      2.86      3.14         2.85
  WS02006230WS02006229        2.97      3.07      2.99      3.87         2.97
  WS02006231WS02006230        0.50      0.50      0.60      3.59         0.01
  WS02006232WS02006231        0.58      0.58      2.89      0.62         0.01
  WS02006234WS02006232        2.83      2.83      2.89      0.60         0.61
  WS02006235WS02006234        0.76      0.77      2.83      3.49         0.01
  WS02006238WS02006235        2.84      2.84      2.90      0.01         0.01
  WS02006239WS02006238        2.86      2.88      2.86      3.02         2.77
  WS02006240WS02006239        2.85      2.86      2.85      3.00         2.72
  WS02006242WS02006240        2.85      2.85      2.95      3.14         0.01
  WS02006243WS02006242        2.85      2.85      2.91      0.01         0.03
  WS02006245WS02006243        2.84      2.85      2.85      2.48         2.33
  WS02006247WS02006245        2.84      2.86      2.84      3.34         2.84
  WS02006248WS02006247        2.84      2.84      2.84      0.01         0.04
  WS02006249WS02006248        2.83      2.84      2.83      3.32         0.01
  WS02006251WS02006249        2.83      2.83      2.83      3.05         2.78
  WS02006252WS02006251        3.12      3.12      3.16      3.13         0.01
  WS02006256WS02006235        3.49      3.54      6.11      0.81         0.01
  YS02001580YS02001583        0.60      0.60      1.02      0.01         0.01
  YS02001583YS02001586        0.66      0.66      1.22      0.01         0.01
  YS02001586YS02001590        1.23      1.23      1.51      0.01         0.01
  YS02001590YS02001593        1.51      1.51      1.62      1.74         0.01
  YS02001593YS02001596        1.56      1.56      1.83      0.01         0.01
  YS02001596YS02001600        1.86      1.86      1.91      0.01         0.01
  YS02001600YS02001601        1.94      1.94      2.07      0.01         0.01
  YS02001601YS02001602        2.02      2.02      2.09      1.94         0.01
  YS02001602YS02001605        2.00      2.00      2.02      2.54         0.01
  YS02001605YS02001607        1.97      2.00      1.97      2.05         1.97
  YS02001607YS02001610        1.40      1.40      1.51      0.01         0.01
  YS02001610YS02001613        1.37      1.37      1.51      0.01         0.01
  YS02001613YS02001616        1.24      1.24      1.37      0.01         0.01
  YS02001616YS02001619        1.19      1.19      1.24      0.01         0.01
  YS02001619YS02001622        1.19      1.19      1.19      1.73         1.16
  YS02001622YS02001625        1.19      1.19      1.78      0.01         0.01
  YS02001625YS02001629        1.03      1.03      1.78      0.01         0.01
  YS02001629YS02163301        1.76      1.76      1.77      0.98         0.86
  YS02001633YS02163601        1.79      1.79      1.81      1.18         1.18
  YS02001641YS02001644        1.50      1.64      1.50      2.10         1.50
  YS02001644YS02001647        0.62      0.62      1.50      0.01         0.01
  YS02001647YS02001649        0.62      0.62      0.91      0.01         0.01
  YS02001649YS02001757        0.91      0.91      1.11      0.28         0.03
  YS02001652YS02001649        0.05      0.05      0.91      0.01         0.01
  YS02001754YS02001757        0.01      0.01      1.11      0.01         0.01
  YS02001757CaochengTiaoxuchi        1.11      1.11      2.28      0.19         0.01
  YS02001759YS02001757        0.78      0.78      1.11      0.01         0.01
  YS02001762YS02001759        0.70      0.70      0.78      0.01         0.01
  YS02001765YS02001762        0.48      0.48      0.70      0.01         0.01
  YS02001767YS02001765        0.07      0.07      0.48      0.01         0.01
  YS02001770YS02001767        0.06      0.08      0.07      0.52         0.02
  YS02001774YS02001770        0.01      0.01      0.67      0.01         0.01
  YS02001779YS02001774        0.01      0.01      0.67      0.01         0.01
  YS02001783YS02001784        0.19      0.35      0.19      0.78         0.19
  YS02001784YS02001785        0.01      0.19      0.01      1.83         0.01
  YS02001786YS02001788        0.01      0.01      0.01      1.34         0.01
  YS02001790YS02001791        0.01      0.01      0.01      0.14         0.01
  YS02001793JiankangQianchi        0.01      0.01      3.26      0.01         0.01
  YS02001882YS02001884        0.01      0.01      0.05      0.01         0.01
  YS02001884YS02001887        0.19      0.19      0.25      0.01         0.01
  YS02001887YS02001890        0.35      0.35      0.41      0.01         0.01
  YS02001890YS02001895        0.01      0.01      0.48      0.01         0.01
  YS02001898YS02001901        0.01      0.01      0.19      0.01         0.01
  YS02001901YS02001904        0.13      0.13      0.19      0.01         0.01
  YS02001904YS02001907        0.14      0.14      1.23      0.01         0.01
  YS02001907YS02006553        1.84      1.84      1.88      0.01         0.01
  YS02001910YS02001907        0.48      0.48      1.16      0.01         0.01
  YS02001915YS02001910        0.01      0.01      0.48      0.01         0.01
  YS02006553YS02006556        0.71      0.71      1.23      0.01         0.01
  YS02006556YS02006558        0.99      0.99      1.36      0.01         0.01
  YS02006558YS02006561        0.01      0.68      0.01      1.76         0.01
  YS02006561YS02001783        0.01      0.01      0.35      0.01         0.01
  YS02163301YS02001633        1.77      1.77      1.80      0.01         0.01
  YS02163601YS02164001        1.68      1.68      1.81      0.48         0.01
  YS02164001YS02001641        1.64      1.68      1.64      1.84         1.64
  
  
  ***************
  Pumping Summary
  ***************
  
  ---------------------------------------------------------------------------------------------------------
                                                  Min       Avg       Max     Total     Power    % Time Off
                        Percent   Number of      Flow      Flow      Flow    Volume     Usage    Pump Curve
  Pump                 Utilized   Start-Ups       LPS       LPS       LPS  10^6 ltr     Kw-hr    Low   High
  ---------------------------------------------------------------------------------------------------------
  CC-R1                   29.56          16      0.00    683.00    683.00     5.814    105.66    0.0   27.6
  CC-R2                   23.12          44      0.00    683.00    683.00     4.549     83.44    0.0   20.4
  CC-S1                   39.58          51      0.00    200.00    200.00     2.280     13.60    0.0    0.0
  CC-S2                   41.76          16      0.00    200.00    200.00     2.405     14.41    0.0    0.0
  JK-R1                    0.58          10      0.00   1000.00   1000.00     0.168      1.14    0.0    0.0
  JK-R2                   14.07         215      0.00   1000.00   1000.00     4.051     23.05    0.0    0.0
  JK-S                     9.85          51      0.00    300.00    300.00     0.851     16.73    0.0    0.0
  

  Analysis begun on:  Wed Sep  6 16:03:43 2023
  Analysis ended on:  Wed Sep  6 16:04:20 2023
  Total elapsed time: 00:00:37