
  OWA STORM WATER MANAGEMENT MODEL - VERSION v5.1.14 (OWA 2022-07-31)
  --------------------------------------------------------------

  WARNING 04: minimum elevation drop used for Conduit WS02004404WS02004405
  WARNING 03: negative offset ignored for Link YS02001904YS02001907
  
  *********************************************************
  NOTE: The summary statistics displayed in this report are
  based on results found at every computational time step,  
  not just on results from each reporting time step.
  *********************************************************
  
  ****************
  Analysis Options
  ****************
  Flow Units ............... LPS
  Process Models:
    Rainfall/Runoff ........ YES
    RDII ................... NO
    Snowmelt ............... NO
    Groundwater ............ NO
    Flow Routing ........... YES
    Ponding Allowed ........ NO
    Water Quality .......... NO
  Infiltration Method ...... HORTON
  Flow Routing Method ...... DYNWAVE
  Surcharge Method ......... EXTRAN
  Starting Date ............ 08/28/2015 08:00:00
  Ending Date .............. 08/28/2015 16:00:00
  Antecedent Dry Days ...... 8.0
  Report Time Step ......... 00:01:00
  Wet Time Step ............ 00:01:00
  Dry Time Step ............ 00:01:00
  Routing Time Step ........ 30.00 sec
  Variable Time Step ....... YES
  Maximum Trials ........... 8
  Number of Threads ........ 4
  Head Tolerance ........... 0.001500 m
  
  
  **************************        Volume         Depth
  Runoff Quantity Continuity     hectare-m            mm
  **************************     ---------       -------
  Initial LID Storage ......         0.072         1.184
  Total Precipitation ......         6.438       106.270
  Evaporation Loss .........         0.000         0.000
  Infiltration Loss ........         0.221         3.640
  Surface Runoff ...........         5.087        83.975
  Final Storage ............         1.204        19.872
  Continuity Error (%) .....        -0.030
  
  
  **************************        Volume        Volume
  Flow Routing Continuity        hectare-m      10^6 ltr
  **************************     ---------     ---------
  Dry Weather Inflow .......         0.630         6.296
  Wet Weather Inflow .......         5.086        50.859
  Groundwater Inflow .......         0.000         0.000
  RDII Inflow ..............         0.000         0.000
  External Inflow ..........         0.105         1.045
  External Outflow .........         3.550        35.502
  Flooding Loss ............         2.262        22.622
  Evaporation Loss .........         0.000         0.000
  Exfiltration Loss ........         0.000         0.000
  Initial Stored Volume ....         0.303         3.031
  Final Stored Volume ......         0.321         3.209
  Continuity Error (%) .....        -0.168
  
  
  *************************
  Highest Continuity Errors
  *************************
  Node YS02001884 (4.90%)
  Node YS02001583 (-4.58%)
  Node HS02004817 (1.41%)
  Node YS02001774 (1.26%)
  
  
  ***************************
  Time-Step Critical Elements
  ***************************
  Link WS02006280WS02006229 (43.51%)
  Link YS02001791YS02001793 (19.77%)
  Link WS02006252WS02006251 (6.20%)
  Link WS02006238WS02006235 (5.90%)
  Link WS02004404WS02004405 (3.88%)
  
  
  ********************************
  Highest Flow Instability Indexes
  ********************************
  Link WS02006238WS02006235 (40)
  Link WS02006229WS02006228 (40)
  Link WS02004404WS02004405 (38)
  Link WS02006252WS02006251 (38)
  Link WS02006113WS02006111 (38)
  
  
  *************************
  Routing Time Step Summary
  *************************
  Minimum Time Step           :     0.00 sec
  Average Time Step           :     2.57 sec
  Maximum Time Step           :     6.46 sec
  Percent in Steady State     :    -0.00
  Average Iterations per Step :     4.30
  Percent Not Converging      :    22.11
  
  
  ***************************
  Subcatchment Runoff Summary
  ***************************
  
  ------------------------------------------------------------------------------------------------------------------------------
                            Total      Total      Total      Total     Imperv       Perv      Total       Total     Peak  Runoff
                           Precip      Runon       Evap      Infil     Runoff     Runoff     Runoff      Runoff   Runoff   Coeff
  Subcatchment                 mm         mm         mm         mm         mm         mm         mm    10^6 ltr      LPS
  ------------------------------------------------------------------------------------------------------------------------------
  sub0                     106.27       0.00       0.00       1.06      97.60       6.38     103.98        0.08    17.00   0.978
  sub1                     106.27       0.00       0.00       1.64      83.66       8.84      92.50        0.62   122.55   0.870
  sub10                    106.27       0.00       0.00       1.04      78.40       5.87      84.27        0.93   186.19   0.793
  sub11                    106.27       0.00       0.00       0.94      72.85       5.48      78.33        0.91   183.33   0.737
  sub12                    106.27       0.00       0.00       1.65      74.06       9.56      83.62        0.73   147.95   0.787
  sub14                    106.27       0.00       0.00       1.03      69.00       5.89      74.88        0.71   143.51   0.705
  sub15                    106.27       0.00       0.00       4.71      62.03      22.22      84.25        1.45   277.04   0.793
  sub16                    106.27       0.00       0.00       5.01      60.50      25.17      85.68        0.90   176.53   0.806
  sub17                    106.27       0.00       0.00       5.36      66.78      26.47      93.24        0.80   156.12   0.877
  sub2                     106.27       0.00       0.00       7.40      61.16      29.02      90.18        0.84   143.34   0.849
  sub22                    106.27       0.00       0.00       8.33      57.91      35.92      93.83        5.93  1051.21   0.883
  sub23                    106.27       0.00       0.00       6.28      59.63      29.19      88.82        4.24   796.88   0.836
  sub3                     106.27       0.00       0.00       7.92      60.59      28.17      88.76        2.00   323.17   0.835
  sub4                     106.27       0.00       0.00       1.79      82.47       8.56      91.02        1.90   347.81   0.857
  sub5                     106.27       0.00       0.00       0.92      80.93       5.25      86.18        0.98   194.93   0.811
  sub60                    106.27       0.00       0.00       1.48      71.25       8.36      79.62        1.05   211.14   0.749
  sub61                    106.27       0.00       0.00       2.28      71.19      12.49      83.68        1.54   309.77   0.787
  sub62                    106.27       0.00       0.00       1.00      75.90       5.68      81.58        2.24   447.38   0.768
  sub63                    106.27       0.00       0.00       4.20      60.97      21.03      82.01        1.86   366.43   0.772
  sub64                    106.27       0.00       0.00       2.01      69.44      10.41      79.85        1.92   379.77   0.751
  sub65                    106.27       0.00       0.00       1.85      74.95       9.50      84.46        2.33   456.37   0.795
  sub66                    106.27       0.00       0.00       4.87      58.99      19.56      78.56        3.66   641.63   0.739
  sub67                    106.27       0.00       0.00       0.99      77.81       5.87      83.67        1.56   314.11   0.787
  sub68                    106.27       0.00       0.00       1.75      68.72       9.58      78.30        2.15   433.42   0.737
  sub69                    106.27       0.00       0.00       1.64      71.50      10.99      82.48        3.05   593.33   0.776
  sub7                     106.27       0.00       0.00       1.09      73.95       6.32      80.27        0.27    54.56   0.755
  sub70                    106.27       0.00       0.00       5.43      57.31      24.15      81.46        2.35   386.39   0.767
  sub71                    106.27       0.00       0.00       0.93      68.96       5.15      74.10        1.94   384.59   0.697
  sub72                    106.27       0.00       0.00       0.89      74.51       4.80      79.30        1.09   211.03   0.746
  sub8                     106.27       0.00       0.00       1.07      71.87       6.13      78.00        0.50   100.38   0.734
  sub9                     106.27       0.00       0.00       1.04      69.67       5.94      75.62        0.36    73.24   0.712
  

  ***********************
  LID Performance Summary
  ***********************

  --------------------------------------------------------------------------------------------------------------------
                                         Total      Evap     Infil   Surface    Drain    Initial     Final  Continuity
                                        Inflow      Loss      Loss   Outflow   Outflow   Storage   Storage       Error
  Subcatchment      LID Control             mm        mm        mm        mm        mm        mm        mm           %
  --------------------------------------------------------------------------------------------------------------------
  sub1              GreenRoof           106.27      0.00      0.00      0.00      0.00      7.05    113.42       -0.09
  sub10             GreenRoof           106.27      0.00      0.00      0.00      0.00      7.05    113.42       -0.09
  sub11             GreenRoof           106.27      0.00      0.00      0.00      0.00      7.05    113.42       -0.09
  sub12             GreenRoof           106.27      0.00      0.00      0.00      0.00      7.05    113.42       -0.09
  sub14             GreenRoof           106.27      0.00      0.00      0.00      0.00      7.05    113.42       -0.09
  sub15             GreenRoof           106.27      0.00      0.00      0.00      0.00      7.05    113.42       -0.09
  sub16             GreenRoof           106.27      0.00      0.00      0.00      0.00      7.05    113.42       -0.09
  sub17             GreenRoof           106.27      0.00      0.00      0.00      0.00      7.05    113.42       -0.09
  sub2              GreenRoof           106.27      0.00      0.00      0.00      0.00      7.05    113.42       -0.09
  sub22             GreenRoof           106.27      0.00      0.00      0.00      0.00      7.05    113.42       -0.09
  sub23             GreenRoof           106.27      0.00      0.00      0.00      0.00      7.05    113.42       -0.09
  sub3              GreenRoof           106.27      0.00      0.00      0.00      0.00      7.05    113.42       -0.09
  sub4              GreenRoof           106.27      0.00      0.00      0.00      0.00      7.05    113.42       -0.09
  sub5              GreenRoof           106.27      0.00      0.00      0.00      0.00      7.05    113.42       -0.09
  sub60             GreenRoof           106.27      0.00      0.00      0.00      0.00      7.05    113.42       -0.09
  sub61             GreenRoof           106.27      0.00      0.00      0.00      0.00      7.05    113.42       -0.09
  sub62             GreenRoof           106.27      0.00      0.00      0.00      0.00      7.05    113.42       -0.09
  sub63             GreenRoof           106.27      0.00      0.00      0.00      0.00      7.05    113.42       -0.09
  sub64             GreenRoof           106.27      0.00      0.00      0.00      0.00      7.05    113.42       -0.09
  sub65             GreenRoof           106.27      0.00      0.00      0.00      0.00      7.05    113.42       -0.09
  sub66             GreenRoof           106.27      0.00      0.00      0.00      0.00      7.05    113.42       -0.09
  sub67             GreenRoof           106.27      0.00      0.00      0.00      0.00      7.05    113.42       -0.09
  sub68             GreenRoof           106.27      0.00      0.00      0.00      0.00      7.05    113.42       -0.09
  sub69             GreenRoof           106.27      0.00      0.00      0.00      0.00      7.05    113.42       -0.09
  sub7              GreenRoof           106.27      0.00      0.00      0.00      0.00      7.05    113.42       -0.09
  sub70             GreenRoof           106.27      0.00      0.00      0.00      0.00      7.05    113.42       -0.09
  sub71             GreenRoof           106.27      0.00      0.00      0.00      0.00      7.05    113.42       -0.09
  sub72             GreenRoof           106.27      0.00      0.00      0.00      0.00      7.05    113.42       -0.09
  sub8              GreenRoof           106.27      0.00      0.00      0.00      0.00      7.05    113.42       -0.09
  sub9              GreenRoof           106.27      0.00      0.00      0.00      0.00      7.05    113.42       -0.09
  
  ******************
  Node Depth Summary
  ******************
  
  ---------------------------------------------------------------------------------
                                 Average  Maximum  Maximum  Time of Max    Reported
                                   Depth    Depth      HGL   Occurrence   Max Depth
  Node                 Type       Meters   Meters   Meters  days hr:min      Meters
  ---------------------------------------------------------------------------------
  HS02004478           JUNCTION     0.44     1.86    11.09     0  01:12        1.46
  HS02004479           JUNCTION     0.54     1.85    11.05     0  01:36        1.85
  HS02004480           JUNCTION     0.50     1.66    10.90     0  01:12        1.60
  HS02004770           JUNCTION     0.50     1.42    11.25     0  01:12        1.42
  HS02004777           JUNCTION     0.52     1.48    11.28     0  01:12        1.48
  HS02004785           JUNCTION     0.41     1.45    11.36     0  01:12        1.32
  HS02004788           JUNCTION     0.38     1.39    11.29     0  01:12        1.31
  HS02004792           JUNCTION     0.50     1.60    11.12     0  01:12        1.60
  HS02004799           JUNCTION     0.59     1.76    10.97     0  01:12        1.76
  HS02004802           JUNCTION     0.53     1.70    10.83     0  01:12        1.59
  HS02004807           JUNCTION     0.50     1.73    10.90     0  01:15        1.60
  HS02004817           JUNCTION     0.80     2.39    11.23     0  01:12        2.10
  HS02004824           JUNCTION     0.35     2.01    11.41     0  01:12        1.41
  HS02004830           JUNCTION     0.34     1.77    11.23     0  01:15        1.36
  HS02004837           JUNCTION     0.29     1.72    11.30     0  01:15        1.52
  HS02004842           JUNCTION     0.57     2.04    11.31     0  01:15        1.55
  HS02004848           JUNCTION     0.26     1.70    11.30     0  01:15        1.62
  HS02004852           JUNCTION     0.27     1.73    11.24     0  01:15        1.25
  HS02004856           JUNCTION     0.33     1.74    11.17     0  01:15        1.72
  HS02004862           JUNCTION     0.30     1.68    11.06     0  01:15        1.67
  HS02004870           JUNCTION     0.30     1.63    10.92     0  01:15        1.26
  HS02004876           JUNCTION     0.39     2.26    11.29     0  01:36        2.26
  HS02004881           JUNCTION     0.34     1.47    10.50     0  01:15        1.26
  HS02004901           JUNCTION     0.50     1.42    11.24     0  01:12        1.42
  WS02001211           JUNCTION     0.66     0.86     5.70     0  01:20        0.83
  WS02001212           JUNCTION     0.41     0.63     5.69     0  01:19        0.60
  WS02001213           JUNCTION     0.63     0.96     5.72     0  01:19        0.86
  WS02003059           JUNCTION     0.70     0.97     5.65     0  01:21        0.95
  WS02003060           JUNCTION     0.43     0.69     5.62     0  01:22        0.68
  WS02003066           JUNCTION     0.26     0.45     6.00     0  01:14        0.45
  WS02003067           JUNCTION     0.59     0.93     6.25     0  01:14        0.88
  WS02003069           JUNCTION     0.48     0.77     5.36     0  01:22        0.77
  WS02003072           JUNCTION     0.54     0.81     5.18     0  01:21        0.80
  WS02003073           JUNCTION     0.33     0.51     4.58     0  01:22        0.51
  WS02004138           JUNCTION     0.13     0.14     7.39     0  00:29        0.14
  WS02004139           JUNCTION     0.59     0.77     5.68     0  01:17        0.77
  WS02004401           JUNCTION     0.93     2.66     8.66     0  01:36        2.66
  WS02004402           JUNCTION     0.93     2.74     8.70     0  01:36        2.74
  WS02004403           JUNCTION     0.92     2.53     8.46     0  01:11        1.63
  WS02004404           JUNCTION     0.97     2.50     8.35     0  01:11        2.20
  WS02004405           JUNCTION     0.96     2.35     8.20     0  01:11        2.23
  WS02004406           JUNCTION     0.93     1.86     7.69     0  01:11        1.58
  WS02004407           JUNCTION     0.37     0.83     7.15     0  01:16        0.83
  WS02004409           JUNCTION     0.66     1.37     7.14     0  01:36        1.34
  WS02004410           JUNCTION     0.65     1.38     7.10     0  01:13        1.24
  WS02004411           JUNCTION     0.64     1.42     7.10     0  01:13        1.17
  WS02004412           JUNCTION     0.63     1.25     6.89     0  01:14        1.07
  WS02004413           JUNCTION     0.74     1.66     7.13     0  01:13        1.13
  WS02006109           JUNCTION     1.31     2.64     9.26     0  01:11        2.64
  WS02006110           JUNCTION     1.19     2.53     9.12     0  01:11        2.44
  WS02006111           JUNCTION     0.66     2.02     8.73     0  01:11        1.68
  WS02006112           JUNCTION     1.19     2.68     8.56     0  01:11        2.28
  WS02006113           JUNCTION     0.74     2.07     8.96     0  01:36        2.07
  WS02006115           JUNCTION     0.89     2.59     8.73     0  01:11        1.88
  WS02006116           JUNCTION     0.94     2.59     8.63     0  01:11        2.12
  WS02006228           JUNCTION     1.42     3.03     9.68     0  01:11        3.03
  WS02006229           JUNCTION     1.45     3.25     9.94     0  01:11        3.25
  WS02006230           JUNCTION     1.30     2.65     9.39     0  01:11        2.65
  WS02006231           JUNCTION     1.00     2.24     9.36     0  01:09        2.24
  WS02006232           JUNCTION     1.06     2.18     9.22     0  01:10        2.18
  WS02006234           JUNCTION     0.91     1.96     9.12     0  01:10        1.96
  WS02006235           JUNCTION     0.91     2.00     9.16     0  01:10        1.95
  WS02006238           JUNCTION     0.93     2.15     9.29     0  01:36        2.15
  WS02006239           JUNCTION     0.85     2.03     9.24     0  01:10        1.85
  WS02006240           JUNCTION     0.78     2.10     9.39     0  01:10        1.71
  WS02006242           JUNCTION     0.79     1.55     8.82     0  01:10        1.55
  WS02006243           JUNCTION     0.66     1.48     8.90     0  01:10        1.48
  WS02006245           JUNCTION     0.63     1.56     9.04     0  01:10        1.33
  WS02006247           JUNCTION     0.63     1.47     8.97     0  01:10        1.47
  WS02006248           JUNCTION     0.56     1.10     8.69     0  01:10        1.10
  WS02006249           JUNCTION     0.58     1.09     8.69     0  01:10        1.09
  WS02006251           JUNCTION     0.90     2.11     9.78     0  01:15        2.07
  WS02006252           JUNCTION     0.67     1.50     9.74     0  00:00        1.50
  WS02006253           JUNCTION     1.03     3.10    10.75     0  01:36        3.10
  WS02006256           JUNCTION     1.22     2.35     9.28     0  00:00        2.35
  WS02006280           JUNCTION     0.59     1.80    10.07     0  01:11        1.69
  WS02006284           JUNCTION     0.81     2.08    10.48     0  01:11        2.08
  WS02006287           JUNCTION     0.53     1.89    10.84     0  01:12        1.63
  WSF200               JUNCTION     0.27     0.56     5.80     0  01:14        0.51
  YS02001580           JUNCTION     0.24     1.05     9.59     0  01:13        0.77
  YS02001583           JUNCTION     0.28     1.13     9.63     0  01:13        0.92
  YS02001586           JUNCTION     0.41     1.13     9.30     0  01:13        1.13
  YS02001590           JUNCTION     0.53     1.40     9.26     0  01:13        1.39
  YS02001593           JUNCTION     0.47     1.35     9.22     0  01:13        1.30
  YS02001596           JUNCTION     0.62     1.80     9.22     0  01:36        1.80
  YS02001600           JUNCTION     0.72     1.87     9.00     0  01:13        1.87
  YS02001601           JUNCTION     0.90     2.06     8.90     0  01:12        2.06
  YS02001602           JUNCTION     0.79     1.87     8.77     0  01:13        1.87
  YS02001605           JUNCTION     0.72     1.78     8.68     0  01:20        1.78
  YS02001607           JUNCTION     0.66     1.65     8.50     0  01:36        1.65
  YS02001610           JUNCTION     0.70     1.68     8.48     0  01:13        1.68
  YS02001613           JUNCTION     0.66     1.70     8.54     0  01:20        1.70
  YS02001616           JUNCTION     0.59     1.61     8.52     0  01:36        1.59
  YS02001619           JUNCTION     0.57     1.61     8.54     0  01:36        1.61
  YS02001622           JUNCTION     0.56     1.60     8.51     0  01:36        1.56
  YS02001625           JUNCTION     0.80     1.78     8.38     0  01:13        1.78
  YS02001629           JUNCTION     0.70     1.85     8.40     0  01:13        1.85
  YS02001633           JUNCTION     0.76     2.08     8.53     0  01:36        2.08
  YS02001641           JUNCTION     0.69     2.10     8.54     0  01:36        2.10
  YS02001644           JUNCTION     0.67     1.78     8.21     0  01:41        1.78
  YS02001647           JUNCTION     0.43     1.90     8.51     0  01:36        1.90
  YS02001649           JUNCTION     0.48     2.05     8.44     0  01:36        2.05
  YS02001652           JUNCTION     0.36     2.02     8.61     0  02:17        1.28
  YS02001655           JUNCTION     0.26     1.26     8.11     0  01:34        1.05
  YS02001658           JUNCTION     0.16     0.70     7.84     0  01:42        0.70
  YS02001661           JUNCTION     0.15     0.39     7.80     0  01:46        0.38
  YS02001664           JUNCTION     0.08     0.23     8.15     0  01:26        0.23
  YS02001745           JUNCTION     0.07     0.19     7.71     0  01:25        0.19
  YS02001748           JUNCTION     0.13     0.59     7.67     0  01:45        0.58
  YS02001751           JUNCTION     0.20     0.79     7.67     0  01:41        0.78
  YS02001754           JUNCTION     0.30     1.09     7.70     0  01:44        1.07
  YS02001757           JUNCTION     0.48     2.21     8.47     0  01:36        2.21
  YS02001759           JUNCTION     0.42     1.41     7.77     0  01:41        1.41
  YS02001762           JUNCTION     0.41     1.40     7.80     0  01:41        1.40
  YS02001765           JUNCTION     0.38     1.34     7.79     0  01:41        1.34
  YS02001767           JUNCTION     0.37     1.25     7.74     0  01:41        1.24
  YS02001770           JUNCTION     0.38     1.26     7.75     0  01:45        1.26
  YS02001774           JUNCTION     0.45     1.34     7.76     0  01:45        1.34
  YS02001779           JUNCTION     0.27     1.07     7.76     0  01:45        1.07
  YS02001783           JUNCTION     0.37     1.39     7.53     0  01:36        1.23
  YS02001784           JUNCTION     0.37     1.37     7.43     0  01:36        1.11
  YS02001786           JUNCTION     0.31     0.91     6.94     0  01:36        0.86
  YS02001788           JUNCTION     0.23     0.62     6.59     0  01:27        0.61
  YS02001790           JUNCTION     0.27     0.72     6.36     0  01:35        0.71
  YS02001791           JUNCTION     0.16     0.44     5.91     0  01:34        0.43
  YS02001793           JUNCTION     0.09     0.30     5.13     0  01:41        0.27
  YS02001882           JUNCTION     0.44     1.83     8.55     0  01:20        1.83
  YS02001884           JUNCTION     0.53     1.93     8.55     0  01:20        1.93
  YS02001887           JUNCTION     0.60     2.00     8.54     0  01:20        2.00
  YS02001890           JUNCTION     0.63     1.81     8.32     0  01:20        1.81
  YS02001895           JUNCTION     0.41     1.75     8.50     0  01:20        1.75
  YS02001898           JUNCTION     0.41     1.77     8.51     0  01:20        1.77
  YS02001901           JUNCTION     0.53     1.87     8.48     0  01:20        1.87
  YS02001904           JUNCTION     0.51     1.71     8.34     0  01:20        1.71
  YS02001907           JUNCTION     0.82     1.96     8.25     0  01:20        1.96
  YS02001910           JUNCTION     0.62     1.80     8.31     0  01:21        1.80
  YS02001915           JUNCTION     0.44     1.92     8.64     0  01:36        1.92
  YS02001918           JUNCTION     0.25     1.30     8.37     0  01:21        1.30
  YS02001920           JUNCTION     0.33     2.14     9.15     0  01:36        2.14
  YS02001923           JUNCTION     0.18     1.15     8.41     0  01:21        1.13
  YS02001926           JUNCTION     0.20     0.98     8.43     0  01:21        0.94
  YS02001929           JUNCTION     0.11     0.74     8.43     0  01:21        0.70
  YS02006553           JUNCTION     0.82     2.19     8.47     0  01:36        2.19
  YS02006556           JUNCTION     0.79     2.01     8.32     0  01:20        2.01
  YS02006558           JUNCTION     0.83     2.01     8.28     0  01:20        2.01
  YS02006561           JUNCTION     0.22     0.89     7.55     0  01:20        0.86
  YS02163301           JUNCTION     0.71     2.03     8.55     0  01:36        2.03
  YS02163601           JUNCTION     0.77     2.08     8.48     0  01:36        2.08
  YS02164001           JUNCTION     0.69     1.87     8.33     0  01:41        1.87
  YSB1154              JUNCTION     0.68     1.95    11.00     0  01:12        1.92
  YSB1171              JUNCTION     0.82     1.95    10.85     0  01:12        1.95
  YSB1174              JUNCTION     0.63     1.80    10.91     0  01:12        1.76
  YSB6556              JUNCTION     0.57     1.79    10.96     0  01:12        1.73
  CC-1                 OUTFALL      0.00     0.00     0.00     0  00:00        0.00
  CC-2                 OUTFALL      0.00     0.00     0.00     0  00:00        0.00
  JK-1                 OUTFALL      0.00     0.00     0.00     0  00:00        0.00
  JK-2                 OUTFALL      0.00     0.00     0.00     0  00:00        0.00
  WSC                  OUTFALL      0.33     0.51     1.18     0  01:25        0.51
  CC-storage           STORAGE      0.77     1.28     6.78     0  02:16        1.28
  JK-storage           STORAGE      1.67     4.23     5.03     0  01:53        4.20
  XR-storage           STORAGE      7.82     9.26     7.26     0  08:00        9.26
  
  
  *******************
  Node Inflow Summary
  *******************
  
  -------------------------------------------------------------------------------------------------
                                  Maximum  Maximum                  Lateral       Total        Flow
                                  Lateral    Total  Time of Max      Inflow      Inflow     Balance
                                   Inflow   Inflow   Occurrence      Volume      Volume       Error
  Node                 Type           LPS      LPS  days hr:min    10^6 ltr    10^6 ltr     Percent
  -------------------------------------------------------------------------------------------------
  HS02004478           JUNCTION      0.00  2168.89     0  01:27           0        14.8      -0.012
  HS02004479           JUNCTION      0.00   344.49     0  01:24           0        1.72       0.047
  HS02004480           JUNCTION      0.00  2067.49     0  01:13           0        12.9       0.005
  HS02004770           JUNCTION    796.88   796.88     0  01:27        4.24        4.56       0.057
  HS02004777           JUNCTION      0.03   726.97     0  01:11    0.000864        3.62       0.147
  HS02004785           JUNCTION      0.15   731.82     0  01:11     0.00432        3.62       0.012
  HS02004788           JUNCTION    278.71   866.41     0  01:12         1.5        5.12       0.010
  HS02004792           JUNCTION   1051.49  1713.03     0  01:27        5.93        11.1       0.003
  HS02004799           JUNCTION    143.51  1757.27     0  01:13       0.713        11.2       0.050
  HS02004802           JUNCTION      0.00   404.78     0  01:27           0        1.99       0.168
  HS02004807           JUNCTION    183.33   405.25     0  01:27        0.91        2.03       0.215
  HS02004817           JUNCTION      0.60   401.13     0  01:12      0.0173        1.17       1.428
  HS02004824           JUNCTION    347.86   596.75     0  01:12         1.9        2.27       0.012
  HS02004830           JUNCTION      0.15   647.16     0  01:12     0.00432        1.48       0.084
  HS02004837           JUNCTION    192.54   756.97     0  01:13        1.11         2.4       0.036
  HS02004842           JUNCTION      0.00   696.25     0  01:14           0         2.2       0.591
  HS02004848           JUNCTION    323.17   915.75     0  01:15           2        4.09      -0.001
  HS02004852           JUNCTION      0.00   899.85     0  01:15           0        3.99       0.004
  HS02004856           JUNCTION     73.24   962.78     0  01:15       0.364        4.35       0.039
  HS02004862           JUNCTION    143.54  1023.14     0  01:14       0.846        5.19       0.003
  HS02004870           JUNCTION    100.38  1059.89     0  01:14       0.498        5.69       0.005
  HS02004876           JUNCTION    122.55  1136.48     0  01:16       0.615        6.31       0.009
  HS02004881           JUNCTION     54.56  1197.68     0  01:16        0.27        6.58       0.010
  HS02004901           JUNCTION    176.53   442.08     0  01:26       0.897        1.66       0.106
  WS02001211           JUNCTION      7.35   369.07     0  01:18       0.212        5.45       0.609
  WS02001212           JUNCTION      0.00   474.02     0  01:16           0        5.43       0.290
  WS02001213           JUNCTION      0.00   439.07     0  01:15           0        5.42       0.320
  WS02003059           JUNCTION      0.00   487.74     0  01:14           0        5.43       0.587
  WS02003060           JUNCTION     16.53  1532.64     0  01:22       0.476        16.8       0.087
  WS02003066           JUNCTION      0.00  1251.18     0  01:19           0        10.9       0.013
  WS02003067           JUNCTION      0.00  1245.38     0  01:27           0        10.9       0.039
  WS02003069           JUNCTION      0.32  1489.42     0  01:22     0.00922        16.7       0.093
  WS02003072           JUNCTION      0.00  1480.36     0  01:23           0        16.7       0.125
  WS02003073           JUNCTION      1.82  1478.72     0  01:24      0.0524        16.8       0.128
  WS02004138           JUNCTION      0.00   380.00     0  00:00           0        5.25       0.054
  WS02004139           JUNCTION      0.32   311.68     0  01:17     0.00924        5.26       0.508
  WS02004401           JUNCTION      0.00  1262.69     0  01:14           0          11       0.097
  WS02004402           JUNCTION      0.00  1263.05     0  01:14           0          11       0.099
  WS02004403           JUNCTION      0.00  1264.16     0  01:14           0          11       0.095
  WS02004404           JUNCTION      0.16  1264.89     0  01:14     0.00467          11       0.079
  WS02004405           JUNCTION      0.04  1265.29     0  01:14      0.0011          11       0.118
  WS02004406           JUNCTION      0.00  1277.32     0  01:36           0          11       0.191
  WS02004407           JUNCTION      0.00  1266.42     0  01:14           0          11       0.013
  WS02004409           JUNCTION      0.00  1316.69     0  01:12           0          11       0.031
  WS02004410           JUNCTION      0.00  1347.52     0  01:12           0          11       0.041
  WS02004411           JUNCTION      0.00  1331.31     0  01:13           0          11       0.051
  WS02004412           JUNCTION      0.00  1245.95     0  01:27           0          11       0.071
  WS02004413           JUNCTION      0.00  1245.56     0  01:27           0          11       0.116
  WS02006109           JUNCTION      1.23  1272.69     0  01:11      0.0354        10.6       0.082
  WS02006110           JUNCTION      0.00  1270.68     0  01:11           0        10.3       0.073
  WS02006111           JUNCTION      0.00  1273.64     0  01:11           0        10.3       0.008
  WS02006112           JUNCTION    156.12  1329.56     0  01:11         0.8        11.1       0.175
  WS02006113           JUNCTION      0.00  1269.05     0  01:11           0        10.3       0.024
  WS02006115           JUNCTION      0.00  1321.61     0  01:11           0        11.1       0.066
  WS02006116           JUNCTION      0.00  1262.91     0  01:14           0          11       0.001
  WS02006228           JUNCTION      0.00  1274.24     0  01:11           0        10.5       0.028
  WS02006229           JUNCTION      0.00  2170.19     0  01:27           0        16.1       0.046
  WS02006230           JUNCTION     10.28   958.75     0  01:27       0.296        6.86       0.132
  WS02006231           JUNCTION      0.00   650.31     0  01:09           0        4.27      -0.078
  WS02006232           JUNCTION      0.00   635.58     0  01:09           0        4.25       0.106
  WS02006234           JUNCTION      0.00   636.06     0  01:09           0        4.22       0.016
  WS02006235           JUNCTION      0.00   630.32     0  01:10           0         3.9      -0.048
  WS02006238           JUNCTION      0.00   639.42     0  01:10           0        3.77      -0.046
  WS02006239           JUNCTION      0.00   732.51     0  01:10           0        3.73      -0.118
  WS02006240           JUNCTION      0.00   879.28     0  01:10           0         3.7      -0.074
  WS02006242           JUNCTION      0.00   824.03     0  01:10           0        3.69      -0.035
  WS02006243           JUNCTION      0.00   795.52     0  01:10           0        2.77      -0.164
  WS02006245           JUNCTION      0.00   727.33     0  01:10           0        2.78       0.479
  WS02006247           JUNCTION      0.00   727.11     0  01:10           0        2.78      -0.023
  WS02006248           JUNCTION      0.00   727.71     0  01:10           0        3.25      -0.050
  WS02006249           JUNCTION      0.00  1324.66     0  01:15           0        10.2       0.096
  WS02006251           JUNCTION      0.08  1321.70     0  01:16     0.00222        10.2       0.000
  WS02006252           JUNCTION      0.00   600.00     0  01:05           0        4.98      -0.523
  WS02006253           JUNCTION     17.00  1222.76     0  01:16      0.0842        6.72       0.009
  WS02006256           JUNCTION      0.00   450.00     0  00:20           0        1.35      -0.189
  WS02006280           JUNCTION      0.00  2169.04     0  01:27           0        14.8      -0.018
  WS02006284           JUNCTION      0.10  2168.44     0  01:27     0.00275        14.8       0.001
  WS02006287           JUNCTION      0.00  2171.47     0  01:26           0        14.8       0.046
  WSF200               JUNCTION      0.00  1251.25     0  01:19           0        10.9       0.007
  YS02001580           JUNCTION      0.00    97.84     0  01:13           0     0.00433      -1.003
  YS02001583           JUNCTION      0.00   138.01     0  01:12           0      0.0156      -4.379
  YS02001586           JUNCTION    386.39   386.59     0  01:29        2.35        2.36       0.065
  YS02001590           JUNCTION      0.00   326.55     0  01:36           0        2.23      -0.034
  YS02001593           JUNCTION      0.00   319.75     0  01:36           0        2.23       0.012
  YS02001596           JUNCTION      0.00   318.31     0  01:26           0        2.23      -0.017
  YS02001600           JUNCTION      0.00   318.25     0  01:36           0        2.23       0.023
  YS02001601           JUNCTION    593.33   911.32     0  01:26        3.05        5.28       0.012
  YS02001602           JUNCTION      0.00   575.50     0  01:12           0        3.48       0.014
  YS02001605           JUNCTION      0.00   575.36     0  01:12           0        3.26       0.021
  YS02001607           JUNCTION      0.00   575.22     0  01:12           0        3.26       0.051
  YS02001610           JUNCTION      0.00   555.67     0  01:12           0        3.26       0.084
  YS02001613           JUNCTION      0.00   550.17     0  01:13           0        2.96       0.054
  YS02001616           JUNCTION      0.00   554.37     0  01:13           0        2.97       0.017
  YS02001619           JUNCTION    641.63   936.85     0  01:13        3.66        6.62      -0.001
  YS02001622           JUNCTION      0.00   926.92     0  01:13           0        6.61      -0.006
  YS02001625           JUNCTION      0.00   922.82     0  01:13           0        6.61       0.161
  YS02001629           JUNCTION      0.00   923.49     0  01:13           0        6.46      -0.008
  YS02001633           JUNCTION    456.57  1333.40     0  01:18        2.33         8.8       0.037
  YS02001641           JUNCTION      0.00  1332.64     0  01:19           0         8.8       0.031
  YS02001644           JUNCTION    379.81  1687.60     0  01:19        1.92        10.7       0.028
  YS02001647           JUNCTION      0.00  1687.95     0  01:19           0        10.7       0.001
  YS02001649           JUNCTION      0.00  2019.42     0  01:17           0        12.6       0.008
  YS02001652           JUNCTION      0.00   434.89     0  01:21           0        1.88      -0.233
  YS02001655           JUNCTION      0.15   584.94     0  01:32     0.00443        1.87      -0.565
  YS02001658           JUNCTION      0.00   405.01     0  01:47           0        1.86       0.028
  YS02001661           JUNCTION      0.00   366.39     0  01:26           0        1.86       0.022
  YS02001664           JUNCTION    366.43   366.43     0  01:26        1.86        1.86      -0.009
  YS02001745           JUNCTION    211.14   211.14     0  01:25        1.05        1.05       0.050
  YS02001748           JUNCTION      0.04   211.17     0  01:25      0.0013        1.05      -0.031
  YS02001751           JUNCTION      0.01   273.97     0  01:25    0.000317        1.05       0.101
  YS02001754           JUNCTION      0.26   358.78     0  01:26     0.00749        1.05      -0.310
  YS02001757           JUNCTION      0.00  2962.19     0  01:18           0        17.4       0.041
  YS02001759           JUNCTION    309.81   769.26     0  01:24        1.54        3.79      -0.014
  YS02001762           JUNCTION      0.00   459.90     0  01:24           0        2.26       0.002
  YS02001765           JUNCTION      0.00   462.15     0  01:24           0        2.25       0.003
  YS02001767           JUNCTION      0.54   480.36     0  01:19      0.0154        2.25       0.002
  YS02001770           JUNCTION    447.53   475.45     0  01:20        2.24        2.29      -0.015
  YS02001774           JUNCTION      0.00   117.85     0  01:19           0      0.0887       1.271
  YS02001779           JUNCTION      0.01    86.77     0  01:19    0.000144      0.0328      -0.479
  YS02001783           JUNCTION      0.00  1142.22     0  01:22           0        6.66       0.005
  YS02001784           JUNCTION      1.06  1143.44     0  01:23      0.0305        6.69       0.009
  YS02001786           JUNCTION      0.06  1143.09     0  01:24     0.00162        6.69       0.007
  YS02001788           JUNCTION      0.07  1143.68     0  01:27     0.00204        6.69       0.005
  YS02001790           JUNCTION      0.15  1156.79     0  01:21     0.00446        6.69       0.012
  YS02001791           JUNCTION      0.00  1270.02     0  01:35           0        6.69      -0.017
  YS02001793           JUNCTION      0.00  1234.01     0  01:29           0        6.69       0.005
  YS02001882           JUNCTION      0.00    68.71     0  01:11           0      0.0154       4.628
  YS02001884           JUNCTION      0.00   124.37     0  01:11           0      0.0528       5.148
  YS02001887           JUNCTION    314.56   332.08     0  01:20        1.57         1.6       0.257
  YS02001890           JUNCTION      0.00   337.05     0  01:20           0        1.56       0.330
  YS02001895           JUNCTION      0.00   326.05     0  01:16           0        1.56       0.188
  YS02001898           JUNCTION      0.00   327.41     0  01:16           0        1.55      -0.030
  YS02001901           JUNCTION      0.00   327.39     0  01:16           0        1.56       0.227
  YS02001904           JUNCTION      0.00   326.11     0  01:20           0        1.58       0.176
  YS02001907           JUNCTION      0.00   997.67     0  01:22           0        4.69       0.388
  YS02001910           JUNCTION      0.00   684.48     0  01:22           0        3.11       0.232
  YS02001915           JUNCTION    384.61   684.76     0  01:22        1.94        3.12       0.043
  YS02001918           JUNCTION      0.00   305.95     0  01:22           0        1.18       0.005
  YS02001920           JUNCTION      2.87   305.70     0  01:22      0.0827        1.18       0.075
  YS02001923           JUNCTION      0.04   337.07     0  01:22     0.00109        1.09      -0.026
  YS02001926           JUNCTION      0.05   267.91     0  01:21      0.0015        1.09       0.031
  YS02001929           JUNCTION    211.03   211.03     0  01:27        1.09        1.09      -0.010
  YS02006553           JUNCTION      0.00   813.44     0  01:36           0        4.55       0.261
  YS02006556           JUNCTION      0.00   781.08     0  01:36           0        4.57       0.187
  YS02006558           JUNCTION    434.30  1143.21     0  01:23        2.18        6.71       0.044
  YS02006561           JUNCTION      0.00  1142.14     0  01:27           0        6.66       0.007
  YS02163301           JUNCTION      0.00   917.99     0  01:18           0        6.47       0.021
  YS02163601           JUNCTION      0.11  1333.02     0  01:18     0.00317        8.79       0.057
  YS02164001           JUNCTION      0.00  1332.88     0  01:19           0        8.79       0.027
  YSB1154              JUNCTION    194.93   194.93     0  01:26       0.976       0.976       0.142
  YSB1171              JUNCTION      0.00   344.07     0  01:24           0        1.72       0.380
  YSB1174              JUNCTION    147.95   147.95     0  01:25       0.731       0.731       0.165
  YSB6556              JUNCTION      0.00   195.28     0  01:25           0       0.979       0.137
  CC-1                 OUTFALL       0.00  1024.50     0  00:05           0           4       0.000
  CC-2                 OUTFALL       0.00  1024.50     0  00:05           0         9.3       0.000
  JK-1                 OUTFALL       0.00  1500.00     0  01:15           0        1.53       0.000
  JK-2                 OUTFALL       0.00  1500.00     0  01:15           0        3.93       0.000
  WSC                  OUTFALL       0.00  1477.20     0  01:25           0        16.7       0.000
  CC-storage           STORAGE       0.00  2870.26     0  01:27           0        19.6      -0.145
  JK-storage           STORAGE       0.00  1245.14     0  01:24           0        6.84      -0.226
  XR-storage           STORAGE     200.00   200.00     0  00:00        5.76        6.36       0.001
  
  
  **********************
  Node Surcharge Summary
  **********************
  
  Surcharging occurs when water rises above the top of the highest conduit.
  ---------------------------------------------------------------------
                                               Max. Height   Min. Depth
                                   Hours       Above Crown    Below Rim
  Node                 Type      Surcharged         Meters       Meters
  ---------------------------------------------------------------------
  HS02004478           JUNCTION        1.24          0.940        0.000
  HS02004479           JUNCTION        1.86          1.050        0.000
  HS02004480           JUNCTION        1.89          0.954        0.146
  HS02004770           JUNCTION        1.82          0.720        0.000
  HS02004777           JUNCTION        1.82          0.780        0.000
  HS02004785           JUNCTION        1.43          0.755        0.035
  HS02004788           JUNCTION        1.38          0.687        0.033
  HS02004792           JUNCTION        1.87          0.900        0.000
  HS02004799           JUNCTION        1.93          1.060        0.000
  HS02004802           JUNCTION        1.87          0.989        0.221
  HS02004807           JUNCTION        1.85          1.026        0.194
  HS02004817           JUNCTION        2.07          1.686        0.054
  HS02004824           JUNCTION        1.29          1.310        0.000
  HS02004830           JUNCTION        1.21          1.066        0.264
  HS02004837           JUNCTION        1.13          1.020        0.320
  HS02004842           JUNCTION        1.80          1.337        0.183
  HS02004848           JUNCTION        1.08          1.004        0.366
  HS02004852           JUNCTION        1.12          1.032        0.388
  HS02004856           JUNCTION        1.11          0.971        0.329
  HS02004862           JUNCTION        1.18          0.979        0.321
  HS02004870           JUNCTION        1.24          0.931        0.469
  HS02004876           JUNCTION        1.79          1.560        0.000
  HS02004881           JUNCTION        1.76          0.774        0.676
  HS02004901           JUNCTION        1.83          0.720        0.000
  WS02004401           JUNCTION        2.23          1.660        0.000
  WS02004402           JUNCTION        2.26          1.740        0.000
  WS02004403           JUNCTION        2.26          1.535        0.495
  WS02004404           JUNCTION        2.37          1.500        1.280
  WS02004405           JUNCTION        2.36          1.355        1.445
  WS02004406           JUNCTION        2.36          0.862        1.588
  WS02004409           JUNCTION        1.93          0.373        1.987
  WS02004410           JUNCTION        1.91          0.384        2.156
  WS02004411           JUNCTION        1.90          0.415        2.115
  WS02004412           JUNCTION        1.86          0.245        2.065
  WS02004413           JUNCTION        2.01          0.661        1.539
  WS02006109           JUNCTION        2.51          1.820        0.000
  WS02006110           JUNCTION        2.40          1.623        0.227
  WS02006111           JUNCTION        2.01          1.213        0.657
  WS02006112           JUNCTION        2.45          1.680        0.000
  WS02006113           JUNCTION        2.02          1.266        0.664
  WS02006115           JUNCTION        2.15          1.579        0.671
  WS02006116           JUNCTION        2.17          1.535        0.755
  WS02006228           JUNCTION        2.50          2.200        0.000
  WS02006229           JUNCTION        1.94          1.070        0.000
  WS02006230           JUNCTION        2.37          1.570        0.000
  WS02006231           JUNCTION        2.36          1.530        0.000
  WS02006232           JUNCTION        2.42          1.480        0.000
  WS02006234           JUNCTION        2.35          1.240        0.000
  WS02006235           JUNCTION        2.36          1.290        0.000
  WS02006238           JUNCTION        2.37          1.430        0.000
  WS02006239           JUNCTION        2.35          1.290        0.000
  WS02006240           JUNCTION        2.34          1.390        0.000
  WS02006242           JUNCTION        2.36          0.820        0.000
  WS02006243           JUNCTION        2.33          0.770        0.000
  WS02006245           JUNCTION        2.33          0.850        0.000
  WS02006247           JUNCTION        2.34          0.760        0.000
  WS02006248           JUNCTION        2.34          0.380        0.000
  WS02006249           JUNCTION        2.34          0.390        0.000
  WS02006251           JUNCTION        2.33          1.078        0.102
  WS02006252           JUNCTION        2.56          1.100        0.000
  WS02006253           JUNCTION        2.33          2.062        0.418
  WS02006256           JUNCTION        7.02          2.050        0.000
  WS02006280           JUNCTION        1.91          0.749        0.031
  WS02006284           JUNCTION        1.87          0.800        0.000
  WS02006287           JUNCTION        1.81          0.890        0.000
  YS02001580           JUNCTION        1.61          0.450        0.000
  YS02001583           JUNCTION        1.73          0.493        0.007
  YS02001586           JUNCTION        1.84          0.510        0.000
  YS02001590           JUNCTION        1.89          0.750        0.000
  YS02001593           JUNCTION        1.89          0.734        0.106
  YS02001596           JUNCTION        1.95          1.070        0.000
  YS02001600           JUNCTION        2.00          1.190        0.000
  YS02001601           JUNCTION        2.16          1.440        0.000
  YS02001602           JUNCTION        2.10          1.270        0.000
  YS02001605           JUNCTION        2.08          1.180        0.000
  YS02001607           JUNCTION        1.83          0.654        0.026
  YS02001610           JUNCTION        1.84          0.680        0.000
  YS02001613           JUNCTION        1.82          0.700        0.000
  YS02001616           JUNCTION        1.80          0.610        0.000
  YS02001619           JUNCTION        1.79          0.610        0.000
  YS02001622           JUNCTION        1.79          0.603        0.017
  YS02001625           JUNCTION        1.90          0.780        0.000
  YS02001629           JUNCTION        1.33          0.470        0.000
  YS02001633           JUNCTION        1.90          1.060        0.000
  YS02001641           JUNCTION        1.84          1.100        0.000
  YS02001644           JUNCTION        1.82          0.778        0.142
  YS02001647           JUNCTION        1.09          0.900        0.000
  YS02001649           JUNCTION        1.29          1.050        0.000
  YS02001652           JUNCTION        0.82          0.988        0.142
  YS02001655           JUNCTION        0.03          0.264        0.936
  YS02001754           JUNCTION        0.02          0.038        1.112
  YS02001757           JUNCTION        1.34          1.210        0.000
  YS02001759           JUNCTION        1.11          0.406        0.804
  YS02001762           JUNCTION        1.06          0.404        0.746
  YS02001765           JUNCTION        1.01          0.341        0.759
  YS02001767           JUNCTION        0.97          0.253        0.777
  YS02001770           JUNCTION        0.94          0.229        0.691
  YS02001774           JUNCTION        1.06          0.335        0.715
  YS02001779           JUNCTION        0.10          0.073        0.607
  YS02001783           JUNCTION        1.09          0.591        1.009
  YS02001784           JUNCTION        1.03          0.566        0.924
  YS02001786           JUNCTION        0.55          0.112        1.318
  YS02001882           JUNCTION        0.72          0.830        0.000
  YS02001884           JUNCTION        0.78          0.870        0.000
  YS02001887           JUNCTION        1.07          0.950        0.000
  YS02001890           JUNCTION        1.10          0.760        0.000
  YS02001895           JUNCTION        0.69          0.750        0.000
  YS02001898           JUNCTION        0.67          0.740        0.000
  YS02001901           JUNCTION        1.03          0.870        0.000
  YS02001904           JUNCTION        0.86          0.711        0.139
  YS02001907           JUNCTION        1.85          0.950        0.000
  YS02001910           JUNCTION        1.15          0.801        0.299
  YS02001915           JUNCTION        0.72          0.923        0.077
  YS02001918           JUNCTION        0.52          0.303        0.507
  YS02001920           JUNCTION        0.55          1.140        0.000
  YS02006553           JUNCTION        1.87          1.190        0.000
  YS02006556           JUNCTION        1.32          0.972        0.378
  YS02006558           JUNCTION        1.29          0.915        0.485
  YS02006561           JUNCTION        0.46          0.087        1.063
  YS02163301           JUNCTION        1.89          1.030        0.000
  YS02163601           JUNCTION        1.92          1.080        0.000
  YS02164001           JUNCTION        1.85          0.870        0.230
  YSB1154              JUNCTION        1.97          1.246        0.154
  YSB1171              JUNCTION        1.97          1.100        0.000
  YSB1174              JUNCTION        1.95          1.099        0.151
  YSB6556              JUNCTION        1.92          1.093        0.007
  
  
  *********************
  Node Flooding Summary
  *********************
  
  Flooding refers to all water that overflows a node, whether it ponds or not.
  --------------------------------------------------------------------------
                                                             Total   Maximum
                                 Maximum   Time of Max       Flood    Ponded
                        Hours       Rate    Occurrence      Volume     Depth
  Node                 Flooded       LPS   days hr:min    10^6 ltr    Meters
  --------------------------------------------------------------------------
  HS02004478              0.01    115.55      0  01:12       0.000     0.000
  HS02004479              0.01      1.20      0  01:36       0.000     0.000
  HS02004770              0.63    148.09      0  01:27       0.174     0.000
  HS02004777              0.01     40.93      0  01:12       0.000     0.000
  HS02004792              0.61    430.58      0  01:27       0.573     0.000
  HS02004799              0.01     20.30      0  01:12       0.000     0.000
  HS02004824              0.01    131.77      0  01:12       0.000     0.000
  HS02004876              0.01     57.34      0  01:36       0.000     0.000
  HS02004901              1.13    442.08      0  01:26       1.333     0.000
  WS02004401              0.01      0.49      0  01:36       0.000     0.000
  WS02004402              0.01      0.57      0  01:36       0.000     0.000
  WS02006109              1.06    133.49      0  01:27       0.281     0.000
  WS02006112              0.01    140.53      0  01:11       0.001     0.000
  WS02006228              0.01      9.86      0  01:11       0.000     0.000
  WS02006229              0.01     26.76      0  01:11       0.000     0.000
  WS02006230              1.88    505.92      0  01:27       2.337     0.000
  WS02006231              0.01    132.55      0  01:09       0.000     0.000
  WS02006232              0.43     42.78      0  01:36       0.001     0.000
  WS02006234              1.90    129.69      0  01:20       0.556     0.000
  WS02006235              0.01     92.69      0  01:10       0.000     0.000
  WS02006238              0.01      0.24      0  01:36       0.000     0.000
  WS02006239              0.01    466.65      0  01:10       0.001     0.000
  WS02006240              0.01    732.29      0  01:10       0.002     0.000
  WS02006242              1.94    797.48      0  01:10       0.926     0.000
  WS02006243              0.01    761.81      0  01:10       0.013     0.000
  WS02006245              0.01    104.98      0  01:10       0.000     0.000
  WS02006247              0.01    114.60      0  01:10       0.000     0.000
  WS02006248              2.04    365.81      0  01:14       2.380     0.000
  WS02006249              2.33   1251.55      0  01:27       8.816     0.000
  WS02006252              1.86    472.95      0  01:10       1.506     0.000
  WS02006256              0.92    443.91      0  01:15       0.994     0.000
  WS02006284              0.01    203.71      0  01:11       0.000     0.000
  WS02006287              0.01     24.99      0  01:12       0.000     0.000
  YS02001580              0.01     17.99      0  01:13       0.000     0.000
  YS02001586              0.98     73.05      0  01:13       0.125     0.000
  YS02001590              0.01      2.93      0  01:13       0.000     0.000
  YS02001596              0.01      0.34      0  01:36       0.000     0.000
  YS02001600              0.01      4.50      0  01:36       0.000     0.000
  YS02001601              1.79    513.28      0  01:26       1.804     0.000
  YS02001602              1.06     62.01      0  01:21       0.215     0.000
  YS02001605              0.01      0.48      0  02:22       0.000     0.000
  YS02001610              0.85    175.13      0  01:30       0.304     0.000
  YS02001613              0.01     16.24      0  01:36       0.000     0.000
  YS02001616              0.01     47.03      0  01:36       0.000     0.000
  YS02001619              0.01     96.78      0  01:36       0.000     0.000
  YS02001625              0.65    130.10      0  01:41       0.146     0.000
  YS02001629              0.01     95.33      0  01:13       0.000     0.000
  YS02001633              0.01      0.29      0  01:36       0.000     0.000
  YS02001641              0.01      1.09      0  01:36       0.000     0.000
  YS02001647              0.01      2.17      0  01:36       0.000     0.000
  YS02001649              0.01      2.39      0  01:36       0.000     0.000
  YS02001757              0.01      1.11      0  01:36       0.000     0.000
  YS02001882              0.01      1.81      0  01:20       0.000     0.000
  YS02001884              0.01      2.10      0  01:20       0.000     0.000
  YS02001887              0.01      1.51      0  01:20       0.000     0.000
  YS02001890              0.01     50.82      0  01:36       0.001     0.000
  YS02001895              0.01      1.00      0  01:20       0.000     0.000
  YS02001898              0.01      1.41      0  01:36       0.000     0.000
  YS02001901              0.01      1.37      0  01:20       0.000     0.000
  YS02001907              0.36    287.86      0  01:22       0.133     0.000
  YS02001920              0.01      0.61      0  01:36       0.000     0.000
  YS02006553              0.01      1.57      0  01:36       0.000     0.000
  YS02163301              0.01      1.10      0  01:36       0.000     0.000
  YS02163601              0.01      0.25      0  01:36       0.000     0.000
  YSB1171                 0.01     59.36      0  01:16       0.001     0.000
  
  
  **********************
  Storage Volume Summary
  **********************
  
  --------------------------------------------------------------------------------------------------
                         Average     Avg  Evap Exfil       Maximum     Max    Time of Max    Maximum
                          Volume    Pcnt  Pcnt  Pcnt        Volume    Pcnt     Occurrence    Outflow
  Storage Unit           1000 m3    Full  Loss  Loss       1000 m3    Full    days hr:min        LPS
  --------------------------------------------------------------------------------------------------
  CC-storage               2.137      33     0     0         3.574      56       0  02:16    2549.00
  JK-storage               0.084      29     0     0         0.213      73       0  01:53    3450.00
  XR-storage               0.939      65     0     0         1.111      77       0  08:00     380.00
  
  
  ***********************
  Outfall Loading Summary
  ***********************
  
  -----------------------------------------------------------
                         Flow       Avg       Max       Total
                         Freq      Flow      Flow      Volume
  Outfall Node           Pcnt       LPS       LPS    10^6 ltr
  -----------------------------------------------------------
  CC-1                  29.26    747.56   1024.50       3.998
  CC-2                  51.65   1019.20   1024.50       9.303
  JK-1                   6.88   1052.46   1500.00       1.527
  JK-2                  14.61   1493.60   1500.00       3.930
  WSC                   99.95    762.93   1477.20      16.744
  -----------------------------------------------------------
  System                40.47   5075.75   1477.20      35.502
  
  
  ********************
  Link Flow Summary
  ********************
  
  -----------------------------------------------------------------------------
                                 Maximum  Time of Max   Maximum    Max/    Max/
                                  |Flow|   Occurrence   |Veloc|    Full    Full
  Link                 Type          LPS  days hr:min     m/sec    Flow   Depth
  -----------------------------------------------------------------------------
  1                    CONDUIT   1477.20     0  01:25      3.68    0.51    0.51
  HS02004478WS02006287 CONDUIT   2171.47     0  01:26      2.90    0.61    1.00
  HS02004479HS02004480 CONDUIT    351.54     0  01:12      0.66    0.34    1.00
  HS02004480HS02004478 CONDUIT   2067.49     0  01:13      2.95    8.71    1.00
  HS02004770HS02004777 CONDUIT    726.94     0  01:11      1.04    1.33    1.00
  HS02004777HS02004785 CONDUIT    731.67     0  01:11      1.12    0.90    1.00
  HS02004785HS02004788 CONDUIT    652.36     0  01:12      1.39    4.92    1.00
  HS02004788HS02004792 CONDUIT    866.04     0  01:13      1.46    0.57    1.00
  HS02004792HS02004799 CONDUIT   1626.77     0  01:13      2.32    1.00    1.00
  HS02004799HS02004480 CONDUIT   1756.24     0  01:13      2.51    2.22    1.00
  HS02004802HS02004478 CONDUIT    404.14     0  01:27      0.74    0.36    1.00
  HS02004807HS02004802 CONDUIT    404.78     0  01:27      0.63    0.77    1.00
  HS02004817HS02004807 CONDUIT    400.53     0  01:12      0.57    0.24    1.00
  HS02004817HS02004824 CONDUIT    401.54     0  01:12      0.58    0.18    1.00
  HS02004824HS02004830 CONDUIT    647.01     0  01:12      0.98    0.85    1.00
  HS02004830HS02004837 CONDUIT    587.09     0  01:13      0.88    0.58    1.00
  HS02004837HS02004842 CONDUIT    696.25     0  01:14      0.99    0.42    1.00
  HS02004842HS02004848 CONDUIT    696.26     0  01:14      1.09    0.41    1.00
  HS02004848HS02004852 CONDUIT    899.85     0  01:15      1.56    1.01    1.00
  HS02004852HS02004856 CONDUIT    893.36     0  01:15      1.43    1.02    1.00
  HS02004856HS02004862 CONDUIT    917.76     0  01:14      1.60    0.92    1.00
  HS02004862HS02004870 CONDUIT    965.02     0  01:14      1.60    1.04    1.00
  HS02004870HS02004876 CONDUIT   1026.05     0  01:16      1.47    0.68    1.00
  HS02004876HS02004881 CONDUIT   1144.92     0  01:16      1.92   12.18    1.00
  HS02004881HS02006253 CONDUIT   1206.09     0  01:16      2.92    0.24    1.00
  HS02004901HS02004770 CONDUIT    265.79     0  01:49      0.38    1.00    1.00
  WS02001211WS02001212 CONDUIT    310.11     0  01:20      0.54    0.24    0.71
  WS02001212WS02001213 CONDUIT    339.40     0  01:21      1.04    0.52    0.60
  WS02001213WS02003059 CONDUIT    295.13     0  01:19      0.47    0.49    0.91
  WS02003059WS02003060 CONDUIT    392.27     0  01:15      0.71    0.26    0.82
  WS02003060WS02003069 CONDUIT   1489.10     0  01:22      2.27    0.58    0.60
  WS02003066WSF200     CONDUIT   1251.25     0  01:19      3.67    0.21    0.38
  WS02003067WS02003066 CONDUIT   1251.18     0  01:19      2.00    0.40    0.57
  WS02003069WS02003072 CONDUIT   1480.36     0  01:23      1.89    0.71    0.65
  WS02003072WS02003073 CONDUIT   1476.90     0  01:24      2.04    3.19    0.61
  WS02004138WS02004139 CONDUIT    190.82     0  00:29      2.16    0.04    0.43
  WS02004139WS02001211 CONDUIT    361.72     0  01:18      0.54    0.46    0.62
  WS02004401WS02004402 CONDUIT   1263.05     0  01:14      1.61    1.52    1.00
  WS02004402WS02004403 CONDUIT   1264.16     0  01:14      1.61    1.82    1.00
  WS02004403WS02004404 CONDUIT   1264.73     0  01:14      1.61    0.91    1.00
  WS02004404WS02004405 CONDUIT   1265.25     0  01:14      1.61   12.40    1.00
  WS02004405WS02004406 CONDUIT   1277.32     0  01:36      1.63    2.52    1.00
  WS02004406WS02004407 CONDUIT   1266.42     0  01:14      2.05    0.57    0.92
  WS02004407WS02004409 CONDUIT   1316.69     0  01:12      2.51    0.47    0.92
  WS02004409WS02004410 CONDUIT   1347.52     0  01:12      1.91    1.74    1.00
  WS02004410WS02004411 CONDUIT   1331.31     0  01:13      1.88    1.82    1.00
  WS02004411WS02004412 CONDUIT   1245.95     0  01:27      1.76    1.77    1.00
  WS02004412WS02004413 CONDUIT   1245.56     0  01:27      1.69    0.83    1.00
  WS02004413WS02003067 CONDUIT   1245.38     0  01:27      1.95    0.53    0.76
  WS02006109WS02006110 CONDUIT   1270.68     0  01:11      2.53    2.44    1.00
  WS02006110WS02006113 CONDUIT   1269.05     0  01:11      2.52    1.15    1.00
  WS02006111WS02006112 CONDUIT   1212.07     0  01:11      2.41    0.58    1.00
  WS02006112WS02006115 CONDUIT   1321.61     0  01:11      1.68    0.78    1.00
  WS02006113WS02006111 CONDUIT   1273.64     0  01:11      2.77    1.53    1.00
  WS02006115WS02006116 CONDUIT   1262.91     0  01:14      1.61    1.62    1.00
  WS02006116WS02004401 CONDUIT   1262.69     0  01:14      1.61    1.74    1.00
  WS02006228WS02006109 CONDUIT   1271.46     0  01:11      2.53    5.56    1.00
  WS02006229WS02006228 CONDUIT   1274.24     0  01:11      2.54    4.22    1.00
  WS02006230WS02006229 CONDUIT    948.47     0  01:27      2.46   21.11    1.00
  WS02006231WS02006230 CONDUIT    650.31     0  01:09      1.70    9.86    1.00
  WS02006232WS02006231 CONDUIT    635.58     0  01:09      1.65    1.33    1.00
  WS02006234WS02006232 CONDUIT    636.06     0  01:09      1.92    1.29    1.00
  WS02006235WS02006234 CONDUIT    630.29     0  01:10      1.66    6.65    1.00
  WS02006238WS02006235 CONDUIT    639.42     0  01:10      2.01    1.43    1.00
  WS02006239WS02006238 CONDUIT    655.63     0  01:10      1.92    2.10    1.00
  WS02006240WS02006239 CONDUIT    644.36     0  01:10      1.75    2.03    1.00
  WS02006242WS02006240 CONDUIT    494.05     0  01:10      1.29    1.96    1.00
  WS02006243WS02006242 CONDUIT    387.64     0  03:30      1.34    0.83    1.00
  WS02006245WS02006243 CONDUIT    727.09     0  01:10      1.92    2.15    1.00
  WS02006247WS02006245 CONDUIT    727.33     0  01:10      1.90    5.77    1.00
  WS02006248WS02006247 CONDUIT    727.11     0  01:10      1.89    1.58    1.00
  WS02006249WS02006248 CONDUIT    727.71     0  01:10      1.89    3.99    1.00
  WS02006251WS02006249 CONDUIT   1324.66     0  01:15      3.44    3.82    1.00
  WS02006252WS02006251 CONDUIT    611.44     0  03:35     27.66    2.24    1.00
  WS02006253WS02006251 CONDUIT   1228.59     0  01:16      3.19    3.68    1.00
  WS02006256WS02006235 CONDUIT    288.93     0  00:00      4.23    3.06    1.00
  WS02006280WS02006229 CONDUIT   2170.19     0  01:27      5.27    0.46    1.00
  WS02006284WS02006280 CONDUIT   2169.04     0  01:27      3.32    0.91    1.00
  WS02006287WS02006284 CONDUIT   2168.34     0  01:27      3.09    1.00    1.00
  WSF200WS02003060     CONDUIT   1369.96     0  01:14      3.23    0.30    0.50
  YS02001580YS02001583 CONDUIT     97.84     0  01:13      0.65    0.38    1.00
  YS02001583YS02001586 CONDUIT    130.54     0  01:12      0.59    0.20    1.00
  YS02001586YS02001590 CONDUIT    326.55     0  01:36      1.29    0.57    1.00
  YS02001590YS02001593 CONDUIT    319.75     0  01:36      1.13    2.01    1.00
  YS02001593YS02001596 CONDUIT    318.31     0  01:26      1.74    0.50    1.00
  YS02001596YS02001600 CONDUIT    318.25     0  01:36      1.26    0.62    1.00
  YS02001600YS02001601 CONDUIT    318.87     0  01:36      1.13    0.55    1.00
  YS02001601YS02001602 CONDUIT    575.50     0  01:12      2.04    2.08    1.00
  YS02001602YS02001605 CONDUIT    575.36     0  01:12      2.03   12.18    1.00
  YS02001605YS02001607 CONDUIT    575.22     0  01:12      2.03    3.15    1.00
  YS02001607YS02001610 CONDUIT    555.67     0  01:12      0.82    0.53    1.00
  YS02001610YS02001613 CONDUIT    550.17     0  01:13      0.76    0.63    1.00
  YS02001613YS02001616 CONDUIT    554.37     0  01:13      0.82    0.48    1.00
  YS02001616YS02001619 CONDUIT    532.54     0  01:13      0.85    0.92    1.00
  YS02001619YS02001622 CONDUIT    926.92     0  01:13      1.79    1.37    1.00
  YS02001622YS02001625 CONDUIT    922.82     0  01:13      1.17    0.49    1.00
  YS02001625YS02001629 CONDUIT    923.49     0  01:13      1.18    0.44    1.00
  YS02001629YS02163301 CONDUIT    917.99     0  01:18      1.17    1.13    1.00
  YS02001633YS02163601 CONDUIT   1332.91     0  01:18      1.70    1.40    1.00
  YS02001641YS02001644 CONDUIT   1332.39     0  01:19      1.70    4.31    1.00
  YS02001644YS02001647 CONDUIT   1687.95     0  01:19      2.20    0.99    1.00
  YS02001647YS02001649 CONDUIT   1691.50     0  01:18      2.37    0.89    1.00
  YS02001649YS02001757 CONDUIT   2002.23     0  01:18      2.66    1.22    1.00
  YS02001652YS02001649 CONDUIT    424.38     0  01:28      1.34    0.21    1.00
  YS02001655YS02001652 CONDUIT    434.89     0  01:21      1.79    0.21    1.00
  YS02001658YS02001655 CONDUIT    584.78     0  01:32      1.95    0.25    0.84
  YS02001661YS02001658 CONDUIT    405.01     0  01:47      2.19    0.16    0.49
  YS02001664YS02001661 CONDUIT    366.39     0  01:26      2.06    0.11    0.30
  YS02001745YS02001748 CONDUIT    211.12     0  01:25      1.98    0.08    0.34
  YS02001748YS02001751 CONDUIT    273.96     0  01:25      1.65    0.14    0.68
  YS02001751YS02001754 CONDUIT    358.52     0  01:26      1.62    0.17    0.89
  YS02001754YS02001757 CONDUIT    320.02     0  01:18      1.05    0.13    1.00
  YS02001757CaochengTiaoxuchi CONDUIT   2870.26     0  01:27      4.16    1.24    1.00
  YS02001759YS02001757 CONDUIT    770.32     0  01:24      1.32    0.55    1.00
  YS02001762YS02001759 CONDUIT    460.03     0  01:24      0.74    0.53    1.00
  YS02001765YS02001762 CONDUIT    459.90     0  01:24      0.85    0.43    1.00
  YS02001767YS02001765 CONDUIT    462.15     0  01:24      0.95    0.58    1.00
  YS02001770YS02001767 CONDUIT    479.83     0  01:19      0.93    1.90    1.00
  YS02001774YS02001770 CONDUIT    105.64     0  01:20      0.72    0.07    1.00
  YS02001779YS02001774 CONDUIT     86.77     0  01:19      0.20    0.04    1.00
  YS02001783YS02001784 CONDUIT   1142.38     0  01:23      2.27    1.57    1.00
  YS02001784YS02001785 CONDUIT   1143.04     0  01:24      2.27    2.66    1.00
  YS02001786YS02001788 CONDUIT   1143.61     0  01:27      2.45    2.20    0.88
  YS02001788YS02001790 CONDUIT   1156.63     0  01:21      2.70    0.85    0.83
  YS02001790YS02001791 CONDUIT   1270.02     0  01:35      3.41    1.38    0.70
  YS02001791YS02001793 CONDUIT   1234.01     0  01:29      6.73    0.53    0.44
  YS02001793JiankangQianchi CONDUIT   1245.14     0  01:24      2.48    0.10    0.65
  YS02001882YS02001884 CONDUIT     68.71     0  01:11      0.41    0.08    1.00
  YS02001884YS02001887 CONDUIT    124.37     0  01:11      0.36    0.17    1.00
  YS02001887YS02001890 CONDUIT    337.05     0  01:20      0.43    0.58    1.00
  YS02001890YS02001895 CONDUIT    326.05     0  01:16      0.46    0.15    1.00
  YS02001895YS02001898 CONDUIT    327.41     0  01:16      0.69    0.57    1.00
  YS02001898YS02001901 CONDUIT    327.39     0  01:16      0.58    0.21    1.00
  YS02001901YS02001904 CONDUIT    326.11     0  01:20      0.64    0.51    1.00
  YS02001904YS02001907 CONDUIT    328.89     0  01:20      0.42    0.12    1.00
  YS02001907YS02006553 CONDUIT    813.44     0  01:36      0.90    0.96    1.00
  YS02001910YS02001907 CONDUIT    685.14     0  01:22      0.87    0.39    1.00
  YS02001915YS02001910 CONDUIT    684.48     0  01:22      1.14    0.34    1.00
  YS02001918YS02001915 CONDUIT    306.78     0  01:22      0.44    0.17    1.00
  YS02001920YS02001918 CONDUIT    305.95     0  01:22      0.72    0.30    1.00
  YS02001923YS02001920 CONDUIT    302.83     0  01:22      0.83    0.14    1.00
  YS02001926YS02001923 CONDUIT    337.03     0  01:22      0.94    0.48    0.95
  YS02001929YS02001926 CONDUIT    267.86     0  01:21      1.05    0.13    0.84
  YS02006553YS02006556 CONDUIT    781.08     0  01:36      0.99    0.67    1.00
  YS02006556YS02006558 CONDUIT    777.26     0  01:46      0.99    0.61    1.00
  YS02006558YS02006561 CONDUIT   1142.14     0  01:27      4.04    2.52    1.00
  YS02006561YS02001783 CONDUIT   1142.22     0  01:22      2.27    0.59    1.00
  YS02163301YS02001633 CONDUIT    917.49     0  01:18      1.17    0.86    1.00
  YS02163601YS02164001 CONDUIT   1332.88     0  01:19      1.70    1.18    1.00
  YS02164001YS02001641 CONDUIT   1332.64     0  01:19      1.70    1.82    1.00
  YSB1154YSB6556       CONDUIT    195.28     0  01:25      0.51    0.35    1.00
  YSB1171HS02004479    CONDUIT    344.49     0  01:24      0.69    0.23    1.00
  YSB1174YSB1171       CONDUIT    148.46     0  01:24      0.39    0.23    1.00
  YSB6556YSB1171       CONDUIT    195.97     0  01:26      0.51    0.20    1.00
  CC-R1                PUMP      1024.50     0  00:05              1.50
  CC-R2                PUMP      1024.50     0  00:05              1.50
  CC-S1                PUMP       300.00     0  01:05              1.50
  CC-S2                PUMP       300.00     0  00:05              1.50
  JK-R1                PUMP      1500.00     0  01:15              1.50
  JK-R2                PUMP      1500.00     0  01:15              1.50
  JK-S                 PUMP       450.00     0  00:20              1.50
  XR-1                 PUMP        95.00     0  00:00              1.00
  XR-2                 PUMP        95.00     0  00:00              1.00
  XR-3                 PUMP        95.00     0  00:00              1.00
  XR-4                 PUMP        95.00     0  00:00              1.00
  
  
  ***************************
  Flow Classification Summary
  ***************************
  
  -------------------------------------------------------------------------------------
                      Adjusted    ---------- Fraction of Time in Flow Class ---------- 
                       /Actual         Up    Down  Sub   Sup   Up    Down  Norm  Inlet 
  Conduit               Length    Dry  Dry   Dry   Crit  Crit  Crit  Crit  Ltd   Ctrl  
  -------------------------------------------------------------------------------------
  1                       1.00   0.00  0.00  0.00  0.00  1.00  0.00  0.00  0.44  0.00
  HS02004478WS02006287    1.00   0.10  0.00  0.00  0.76  0.14  0.00  0.00  0.56  0.00
  HS02004479HS02004480    1.00   0.06  0.00  0.00  0.94  0.00  0.00  0.00  0.09  0.00
  HS02004480HS02004478    1.00   0.10  0.00  0.00  0.70  0.00  0.00  0.21  0.00  0.00
  HS02004770HS02004777    1.00   0.00  0.10  0.00  0.90  0.00  0.00  0.00  0.00  0.00
  HS02004777HS02004785    1.00   0.00  0.00  0.00  1.00  0.00  0.00  0.00  0.09  0.00
  HS02004785HS02004788    1.00   0.00  0.00  0.00  1.00  0.00  0.00  0.00  0.00  0.00
  HS02004788HS02004792    1.00   0.00  0.00  0.00  0.99  0.01  0.00  0.00  0.75  0.00
  HS02004792HS02004799    1.00   0.00  0.00  0.00  0.98  0.02  0.00  0.00  0.73  0.00
  HS02004799HS02004480    1.00   0.00  0.05  0.00  0.90  0.00  0.05  0.00  0.00  0.00
  HS02004802HS02004478    1.00   0.10  0.00  0.00  0.90  0.00  0.00  0.00  0.01  0.00
  HS02004807HS02004802    1.00   0.10  0.00  0.00  0.90  0.00  0.00  0.00  0.00  0.00
  HS02004817HS02004807    1.00   0.00  0.10  0.00  0.90  0.00  0.00  0.00  0.01  0.00
  HS02004817HS02004824    1.00   0.00  0.00  0.00  1.00  0.00  0.00  0.00  0.73  0.00
  HS02004824HS02004830    1.00   0.00  0.00  0.00  1.00  0.00  0.00  0.00  0.00  0.00
  HS02004830HS02004837    1.00   0.00  0.00  0.00  1.00  0.00  0.00  0.00  0.73  0.00
  HS02004837HS02004842    1.00   0.00  0.00  0.00  1.00  0.00  0.00  0.00  0.11  0.00
  HS02004842HS02004848    1.00   0.00  0.10  0.00  0.90  0.00  0.00  0.00  0.52  0.00
  HS02004848HS02004852    1.00   0.10  0.00  0.00  0.90  0.00  0.00  0.00  0.61  0.00
  HS02004852HS02004856    1.00   0.10  0.00  0.00  0.90  0.00  0.00  0.00  0.60  0.00
  HS02004856HS02004862    1.00   0.00  0.10  0.00  0.90  0.00  0.00  0.00  0.62  0.00
  HS02004862HS02004870    1.00   0.00  0.00  0.00  1.00  0.00  0.00  0.00  0.01  0.00
  HS02004870HS02004876    1.00   0.00  0.00  0.00  0.99  0.01  0.00  0.00  0.71  0.00
  HS02004876HS02004881    1.00   0.04  0.00  0.00  0.89  0.07  0.00  0.00  0.00  0.00
  HS02004881HS02006253    1.00   0.03  0.03  0.00  0.46  0.03  0.00  0.44  0.07  0.00
  HS02004901HS02004770    1.00   0.10  0.00  0.00  0.90  0.00  0.00  0.00  0.00  0.00
  WS02001211WS02001212    1.00   0.00  0.04  0.00  0.96  0.00  0.00  0.00  0.00  0.00
  WS02001212WS02001213    1.00   0.04  0.00  0.00  0.53  0.00  0.42  0.00  0.00  0.00
  WS02001213WS02003059    1.00   0.00  0.00  0.00  0.99  0.00  0.00  0.00  0.00  0.00
  WS02003059WS02003060    1.00   0.00  0.00  0.00  1.00  0.00  0.00  0.00  0.03  0.00
  WS02003060WS02003069    1.00   0.00  0.00  0.00  0.99  0.01  0.00  0.00  0.47  0.00
  WS02003066WSF200        1.00   0.08  0.00  0.00  0.00  0.92  0.00  0.00  0.62  0.00
  WS02003067WS02003066    1.00   0.07  0.00  0.00  0.93  0.00  0.00  0.00  0.00  0.00
  WS02003069WS02003072    1.00   0.00  0.00  0.00  1.00  0.00  0.00  0.00  0.63  0.00
  WS02003072WS02003073    1.00   0.00  0.00  0.00  0.00  0.00  0.00  1.00  0.00  0.00
  WS02004138WS02004139    1.00   0.00  0.01  0.00  0.96  0.01  0.00  0.03  0.98  0.00
  WS02004139WS02001211    1.00   0.00  0.00  0.00  0.99  0.00  0.00  0.00  0.00  0.00
  WS02004401WS02004402    1.00   0.04  0.00  0.00  0.95  0.00  0.00  0.00  0.00  0.00
  WS02004402WS02004403    1.00   0.05  0.00  0.00  0.95  0.00  0.00  0.00  0.00  0.00
  WS02004403WS02004404    1.00   0.00  0.05  0.00  0.95  0.00  0.00  0.00  0.00  0.00
  WS02004404WS02004405    1.00   0.00  0.00  0.00  1.00  0.00  0.00  0.00  0.00  0.00
  WS02004405WS02004406    1.00   0.00  0.00  0.00  1.00  0.00  0.00  0.00  0.00  0.00
  WS02004406WS02004407    1.00   0.00  0.06  0.00  0.94  0.00  0.00  0.00  0.00  0.00
  WS02004407WS02004409    1.00   0.06  0.00  0.00  0.93  0.01  0.00  0.00  0.71  0.00
  WS02004409WS02004410    1.00   0.06  0.00  0.00  0.94  0.00  0.00  0.00  0.00  0.00
  WS02004410WS02004411    1.00   0.06  0.00  0.00  0.94  0.00  0.00  0.00  0.00  0.00
  WS02004411WS02004412    1.00   0.06  0.00  0.00  0.94  0.00  0.00  0.00  0.00  0.00
  WS02004412WS02004413    1.00   0.06  0.00  0.00  0.94  0.00  0.00  0.00  0.01  0.00
  WS02004413WS02003067    1.00   0.06  0.01  0.00  0.00  0.00  0.93  0.00  0.00  0.00
  WS02006109WS02006110    1.00   0.00  0.01  0.00  0.96  0.00  0.03  0.00  0.00  0.00
  WS02006110WS02006113    1.00   0.01  0.03  0.00  0.96  0.00  0.00  0.00  0.00  0.00
  WS02006111WS02006112    1.00   0.04  0.00  0.00  0.96  0.00  0.00  0.00  0.68  0.00
  WS02006112WS02006115    1.00   0.04  0.00  0.00  0.95  0.00  0.00  0.00  0.00  0.00
  WS02006113WS02006111    1.00   0.04  0.00  0.00  0.42  0.55  0.00  0.00  0.06  0.00
  WS02006115WS02006116    1.00   0.04  0.00  0.00  0.95  0.00  0.00  0.01  0.00  0.00
  WS02006116WS02004401    1.00   0.04  0.00  0.00  0.96  0.00  0.00  0.00  0.00  0.00
  WS02006228WS02006109    1.00   0.00  0.00  0.00  1.00  0.00  0.00  0.00  0.00  0.00
  WS02006229WS02006228    1.00   0.00  0.00  0.00  0.99  0.00  0.00  0.01  0.00  0.00
  WS02006230WS02006229    1.00   0.00  0.00  0.00  0.97  0.00  0.00  0.03  0.03  0.00
  WS02006231WS02006230    1.00   0.00  0.00  0.00  0.53  0.00  0.47  0.00  0.00  0.00
[...]
  WS02006251WS02006249    1.00   0.00  0.00  0.00  0.99  0.01  0.00  0.00  0.56  0.00
  WS02006252WS02006251    1.00   0.24  0.19  0.00  0.45  0.00  0.12  0.00  0.00  0.00
  WS02006253WS02006251    1.00   0.00  0.00  0.00  0.98  0.00  0.02  0.00  0.01  0.00
  WS02006256WS02006235    1.00   0.00  0.00  0.00  0.99  0.01  0.00  0.00  0.00  0.00
  WS02006280WS02006229    1.00   0.10  0.00  0.00  0.37  0.04  0.00  0.49  0.00  0.00
  WS02006284WS02006280    1.00   0.10  0.00  0.00  0.36  0.00  0.00  0.53  0.00  0.00
  WS02006287WS02006284    1.00   0.09  0.01  0.00  0.65  0.24  0.00  0.01  0.61  0.00
  WSF200WS02003060        1.00   0.00  0.08  0.00  0.43  0.50  0.00  0.00  0.59  0.00
  YS02001580YS02001583    1.00   0.12  0.37  0.00  0.51  0.00  0.00  0.00  0.61  0.00
  YS02001583YS02001586    1.00   0.29  0.14  0.00  0.57  0.00  0.00  0.00  0.62  0.00
  YS02001586YS02001590    1.00   0.10  0.00  0.00  0.65  0.02  0.00  0.23  0.23  0.00
  YS02001590YS02001593    1.00   0.10  0.00  0.00  0.37  0.00  0.53  0.00  0.00  0.00
  YS02001593YS02001596    1.00   0.10  0.00  0.00  0.38  0.01  0.00  0.51  0.01  0.00
  YS02001596YS02001600    1.00   0.10  0.00  0.00  0.42  0.01  0.00  0.47  0.02  0.00
  YS02001600YS02001601    1.00   0.10  0.00  0.00  0.90  0.00  0.00  0.00  0.56  0.00
  YS02001601YS02001602    1.00   0.10  0.00  0.00  0.90  0.00  0.00  0.00  0.00  0.00
  YS02001602YS02001605    1.00   0.10  0.00  0.00  0.90  0.00  0.00  0.00  0.00  0.00
  YS02001605YS02001607    1.00   0.10  0.00  0.00  0.90  0.00  0.00  0.00  0.00  0.00
  YS02001607YS02001610    1.00   0.10  0.00  0.00  0.90  0.00  0.00  0.00  0.00  0.00
  YS02001610YS02001613    1.00   0.10  0.00  0.00  0.90  0.00  0.00  0.00  0.00  0.00
  YS02001613YS02001616    1.00   0.10  0.00  0.00  0.90  0.00  0.00  0.00  0.00  0.00
  YS02001616YS02001619    1.00   0.10  0.00  0.00  0.90  0.00  0.00  0.00  0.00  0.00
  YS02001619YS02001622    1.00   0.10  0.00  0.00  0.89  0.01  0.00  0.00  0.32  0.00
  YS02001622YS02001625    1.00   0.10  0.00  0.00  0.90  0.00  0.00  0.00  0.01  0.00
  YS02001625YS02001629    1.00   0.10  0.01  0.00  0.39  0.00  0.50  0.00  0.00  0.00
  YS02001629YS02163301    1.00   0.10  0.00  0.00  0.90  0.00  0.00  0.00  0.00  0.00
  YS02001633YS02163601    1.00   0.00  0.01  0.00  0.99  0.00  0.00  0.00  0.12  0.00
  YS02001641YS02001644    1.00   0.00  0.00  0.00  1.00  0.00  0.00  0.00  0.00  0.00
  YS02001644YS02001647    1.00   0.00  0.10  0.00  0.90  0.00  0.00  0.00  0.00  0.00
  YS02001647YS02001649    1.00   0.00  0.10  0.00  0.60  0.30  0.00  0.00  0.55  0.00
  YS02001649YS02001757    1.00   0.00  0.00  0.00  0.69  0.31  0.00  0.00  0.48  0.00
  YS02001652YS02001649    1.00   0.00  0.00  0.00  0.99  0.01  0.00  0.00  0.68  0.00
  YS02001655YS02001652    1.00   0.00  0.00  0.00  0.41  0.01  0.00  0.58  0.04  0.00
  YS02001658YS02001655    1.00   0.00  0.10  0.00  0.71  0.19  0.00  0.00  0.68  0.00
  YS02001661YS02001658    1.00   0.10  0.00  0.00  0.47  0.44  0.00  0.00  0.77  0.00
  YS02001664YS02001661    1.00   0.10  0.00  0.00  0.52  0.39  0.00  0.00  0.87  0.00
  YS02001745YS02001748    1.00   0.00  0.00  0.00  0.19  0.03  0.00  0.78  0.15  0.00
  YS02001748YS02001751    1.00   0.00  0.00  0.00  0.86  0.14  0.00  0.00  0.79  0.00
  YS02001751YS02001754    1.00   0.00  0.00  0.00  0.37  0.01  0.00  0.62  0.02  0.00
  YS02001754YS02001757    1.00   0.00  0.00  0.00  1.00  0.00  0.00  0.00  0.74  0.00
  YS02001757CaochengTiaoxuchi    1.00   0.00  0.00  0.00  0.95  0.05  0.00  0.00  0.75  0.00
  YS02001759YS02001757    1.00   0.00  0.00  0.00  1.00  0.00  0.00  0.00  0.59  0.00
  YS02001762YS02001759    1.00   0.00  0.00  0.00  1.00  0.00  0.00  0.00  0.02  0.00
  YS02001765YS02001762    1.00   0.00  0.00  0.00  1.00  0.00  0.00  0.00  0.68  0.00
  YS02001767YS02001765    1.00   0.00  0.00  0.00  1.00  0.00  0.00  0.00  0.00  0.00
  YS02001770YS02001767    1.00   0.00  0.00  0.00  1.00  0.00  0.00  0.00  0.00  0.00
  YS02001774YS02001770    1.00   0.00  0.10  0.00  0.76  0.00  0.14  0.00  0.00  0.00
  YS02001779YS02001774    1.00   0.00  0.00  0.00  1.00  0.00  0.00  0.00  0.72  0.00
  YS02001783YS02001784    1.00   0.00  0.10  0.00  0.89  0.00  0.00  0.00  0.55  0.00
  YS02001784YS02001785    1.00   0.00  0.00  0.00  1.00  0.00  0.00  0.00  0.12  0.00
  YS02001786YS02001788    1.00   0.00  0.00  0.00  0.68  0.32  0.00  0.00  0.00  0.00
  YS02001788YS02001790    1.00   0.00  0.00  0.00  0.15  0.85  0.00  0.00  0.74  0.00
  YS02001790YS02001791    1.00   0.00  0.00  0.00  0.03  0.97  0.00  0.00  0.15  0.00
  YS02001791YS02001793    1.00   0.00  0.00  0.00  0.00  1.00  0.00  0.00  0.01  0.00
  YS02001793JiankangQianchi    1.00   0.00  0.00  0.00  0.96  0.04  0.00  0.00  0.95  0.00
  YS02001882YS02001884    1.00   0.10  0.00  0.00  0.90  0.00  0.00  0.00  0.00  0.00
  YS02001884YS02001887    1.00   0.07  0.02  0.00  0.91  0.00  0.00  0.00  0.00  0.00
  YS02001887YS02001890    1.00   0.00  0.00  0.00  0.95  0.00  0.05  0.00  0.00  0.00
  YS02001890YS02001895    1.00   0.00  0.10  0.00  0.90  0.00  0.00  0.00  0.00  0.00
  YS02001895YS02001898    1.00   0.10  0.00  0.00  0.89  0.00  0.01  0.00  0.00  0.00
  YS02001898YS02001901    1.00   0.10  0.00  0.00  0.90  0.00  0.00  0.00  0.00  0.00
  YS02001901YS02001904    1.00   0.10  0.00  0.00  0.90  0.00  0.00  0.00  0.00  0.00
  YS02001904YS02001907    1.00   0.00  0.10  0.00  0.90  0.00  0.00  0.00  0.00  0.00
  YS02001907YS02006553    1.00   0.00  0.04  0.00  0.96  0.00  0.00  0.00  0.00  0.00
  YS02001910YS02001907    1.00   0.00  0.00  0.00  0.95  0.00  0.00  0.05  0.10  0.00
  YS02001915YS02001910    1.00   0.00  0.00  0.00  0.97  0.03  0.00  0.00  0.11  0.00
  YS02001918YS02001915    1.00   0.00  0.00  0.00  0.96  0.04  0.00  0.00  0.63  0.00
  YS02001920YS02001918    1.00   0.00  0.00  0.00  1.00  0.00  0.00  0.00  0.00  0.00
  YS02001923YS02001920    1.00   0.00  0.00  0.00  1.00  0.00  0.00  0.00  0.85  0.00
  YS02001926YS02001923    1.00   0.00  0.07  0.00  0.13  0.00  0.79  0.00  0.00  0.00
  YS02001929YS02001926    1.00   0.00  0.10  0.00  0.90  0.00  0.00  0.00  0.80  0.00
  YS02006553YS02006556    1.00   0.02  0.00  0.00  0.98  0.00  0.00  0.00  0.03  0.00
  YS02006556YS02006558    1.00   0.00  0.00  0.00  1.00  0.00  0.00  0.00  0.00  0.00
  YS02006558YS02006561    1.00   0.10  0.00  0.00  0.11  0.79  0.00  0.00  0.10  0.00
  YS02006561YS02001783    1.00   0.10  0.00  0.00  0.26  0.63  0.00  0.00  0.61  0.00
  YS02163301YS02001633    1.00   0.00  0.10  0.00  0.90  0.00  0.00  0.00  0.00  0.00
  YS02163601YS02164001    1.00   0.00  0.08  0.00  0.92  0.00  0.00  0.00  0.00  0.00
  YS02164001YS02001641    1.00   0.01  0.07  0.00  0.92  0.00  0.00  0.00  0.05  0.00
  YSB1154YSB6556          1.00   0.10  0.00  0.00  0.90  0.00  0.00  0.00  0.01  0.00
  YSB1171HS02004479       1.00   0.06  0.00  0.00  0.93  0.00  0.00  0.01  0.08  0.00
  YSB1174YSB1171          1.00   0.06  0.02  0.00  0.92  0.00  0.00  0.00  0.00  0.00
  YSB6556YSB1171          1.00   0.06  0.04  0.00  0.90  0.00  0.00  0.00  0.00  0.00
  
  
  *************************
  Conduit Surcharge Summary
  *************************
  
  ----------------------------------------------------------------------------
                                                           Hours        Hours 
                         --------- Hours Full --------   Above Full   Capacity
  Conduit                Both Ends  Upstream  Dnstream   Normal Flow   Limited
  ----------------------------------------------------------------------------
  HS02004478WS02006287        1.24      1.24      1.86      0.01         0.01
  HS02004479HS02004480        1.89      1.89      1.91      0.01         0.01
  HS02004480HS02004478        1.81      1.89      1.81      2.26         1.81
  HS02004770HS02004777        1.82      1.82      1.82      0.30         0.28
  HS02004777HS02004785        1.43      1.43      1.82      0.01         0.01
  HS02004785HS02004788        1.38      1.43      1.38      2.11         1.37
  HS02004788HS02004792        1.38      1.38      1.87      0.01         0.01
  HS02004792HS02004799        1.87      1.87      1.93      0.01         0.01
  HS02004799HS02004480        1.89      1.89      1.93      1.96         0.01
  HS02004802HS02004478        1.82      1.82      1.89      0.01         0.01
  HS02004807HS02004802        1.85      1.85      1.87      0.01         0.02
  HS02004817HS02004807        1.85      1.85      2.07      0.01         0.01
  HS02004817HS02004824        1.29      1.29      2.07      0.01         0.01
  HS02004824HS02004830        1.21      1.21      1.29      0.01         0.01
  HS02004830HS02004837        1.13      1.13      1.21      0.01         0.01
  HS02004837HS02004842        1.13      1.13      1.80      0.01         0.01
  HS02004842HS02004848        1.08      1.08      1.80      0.01         0.01
  HS02004848HS02004852        1.08      1.08      1.12      0.01         0.01
  HS02004852HS02004856        1.12      1.12      1.16      0.01         0.01
  HS02004856HS02004862        1.11      1.11      1.18      0.01         0.01
  HS02004862HS02004870        1.18      1.18      1.24      0.01         0.02
  HS02004870HS02004876        1.24      1.24      1.79      0.01         0.01
  HS02004876HS02004881        1.76      1.79      1.76      2.15         1.76
  HS02004881HS02006253        1.76      1.76      2.33      0.01         0.01
  HS02004901HS02004770        1.82      1.82      1.83      0.19         0.02
  WS02003072WS02003073        0.01      0.01      0.01      2.75         0.01
  WS02004401WS02004402        2.23      2.23      2.26      2.14         2.11
  WS02004402WS02004403        2.26      2.26      2.26      2.25         2.22
  WS02004403WS02004404        2.26      2.26      2.37      0.01         0.03
  WS02004404WS02004405        2.36      2.37      2.36      3.22         2.36
  WS02004405WS02004406        2.36      2.36      2.36      2.43         2.36
  WS02004406WS02004407        0.01      0.01      2.36      0.01         0.01
  WS02004407WS02004409        0.01      0.01      1.93      0.01         0.01
  WS02004409WS02004410        1.91      1.93      1.91      2.15         1.91
  WS02004410WS02004411        1.90      1.91      1.90      2.20         1.90
  WS02004411WS02004412        1.86      1.90      1.86      2.22         1.86
  WS02004412WS02004413        1.86      1.86      2.01      0.01         0.01
  WS02004413WS02003067        0.01      0.01      2.01      0.01         0.01
  WS02006109WS02006110        2.40      2.40      2.55      2.40         0.01
  WS02006110WS02006113        2.02      2.02      2.53      0.95         0.01
  WS02006111WS02006112        2.01      2.01      2.66      0.01         0.01
  WS02006112WS02006115        2.15      2.15      2.45      0.01         0.01
  WS02006113WS02006111        2.01      2.02      2.01      2.15         2.01
  WS02006115WS02006116        2.17      2.18      2.17      2.17         2.13
  WS02006116WS02004401        2.23      2.23      2.23      2.22         2.18
  WS02006228WS02006109        2.51      2.55      2.51      2.74         2.51
  WS02006229WS02006228        2.50      2.51      2.50      2.60         2.50
  WS02006230WS02006229        2.57      2.57      2.57      3.52         0.56
  WS02006231WS02006230        2.36      2.37      2.37      3.05         1.98
  WS02006232WS02006231        2.36      2.36      2.42      0.03         0.39
  WS02006234WS02006232        2.36      2.36      2.42      0.02         0.01
  WS02006235WS02006234        2.35      2.35      2.36      2.80         1.96
  WS02006238WS02006235        2.37      2.37      2.38      0.01         0.77
  WS02006239WS02006238        2.36      2.37      2.37      2.14         0.20
  WS02006240WS02006239        2.34      2.35      2.35      2.14         0.19
  WS02006242WS02006240        2.34      2.34      2.36      2.30         1.93
  WS02006243WS02006242        2.34      2.34      2.36      0.01         0.01
  WS02006245WS02006243        2.33      2.34      2.33      0.21         0.18
  WS02006247WS02006245        2.33      2.34      2.33      2.52         0.34
  WS02006248WS02006247        2.34      2.34      2.34      0.01         0.02
  WS02006249WS02006248        2.34      2.34      2.34      0.53         0.01
  WS02006251WS02006249        2.34      2.34      2.34      2.40         2.32
  WS02006252WS02006251        2.46      2.47      2.55      1.95         0.01
  WS02006253WS02006251        2.34      2.34      2.34      1.97         0.01
  WS02006256WS02006235        2.86      2.91      6.99      0.18         0.01
  WS02006280WS02006229        1.91      1.91      1.94      0.01         0.01
  WS02006284WS02006280        1.87      1.87      1.91      0.01         0.01
  WS02006287WS02006284        1.81      1.81      1.88      0.10         0.12
  YS02001580YS02001583        1.61      1.61      1.79      0.01         0.01
  YS02001583YS02001586        1.73      1.73      1.84      0.01         0.01
  YS02001586YS02001590        1.85      1.85      1.89      0.01         0.01
  YS02001590YS02001593        1.89      1.89      1.91      1.90         0.01
  YS02001593YS02001596        1.90      1.90      1.95      0.01         0.01
  YS02001596YS02001600        1.97      1.97      2.00      0.01         0.01
  YS02001600YS02001601        2.03      2.03      2.16      0.01         0.01
  YS02001601YS02001602        2.10      2.10      2.18      2.03         0.01
  YS02001602YS02001605        2.08      2.08      2.10      2.62         0.01
  YS02001605YS02001607        2.06      2.08      2.06      2.13         2.06
  YS02001607YS02001610        1.83      1.83      1.84      0.01         0.01
  YS02001610YS02001613        1.82      1.82      1.84      0.01         0.01
  YS02001613YS02001616        1.80      1.80      1.82      0.01         0.01
  YS02001616YS02001619        1.79      1.79      1.80      0.01         0.01
  YS02001619YS02001622        1.79      1.79      1.79      1.91         1.74
  YS02001622YS02001625        1.79      1.79      1.90      0.01         0.01
  YS02001625YS02001629        1.33      1.33      1.90      0.01         0.01
  YS02001629YS02163301        1.89      1.89      1.89      1.31         1.16
  YS02001633YS02163601        1.90      1.90      1.92      1.83         1.83
  YS02001641YS02001644        1.82      1.84      1.82      2.18         1.82
  YS02001644YS02001647        1.09      1.09      1.82      0.01         0.01
  YS02001647YS02001649        1.09      1.09      1.29      0.01         0.01
  YS02001649YS02001757        1.28      1.29      1.34      0.97         0.80
  YS02001652YS02001649        0.96      0.96      1.29      0.01         0.01
  YS02001655YS02001652        0.03      0.03      0.82      0.01         0.01
  YS02001658YS02001655        0.01      0.01      0.03      0.01         0.01
  YS02001751YS02001754        0.01      0.01      0.02      0.01         0.01
  YS02001754YS02001757        0.23      0.23      1.34      0.01         0.01
  YS02001757CaochengTiaoxuchi        1.14      1.34      1.73      1.00         0.61
  YS02001759YS02001757        1.11      1.11      1.34      0.01         0.01
  YS02001762YS02001759        1.06      1.06      1.11      0.01         0.01
  YS02001765YS02001762        1.01      1.01      1.06      0.01         0.01
  YS02001767YS02001765        0.97      0.97      1.01      0.01         0.01
  YS02001770YS02001767        0.97      0.99      0.97      1.26         0.72
  YS02001774YS02001770        0.94      0.94      1.06      0.01         0.01
  YS02001779YS02001774        0.10      0.10      1.06      0.01         0.01
  YS02001783YS02001784        1.03      1.09      1.03      1.40         1.03
  YS02001784YS02001785        0.55      1.03      0.55      1.93         0.55
  YS02001786YS02001788        0.01      0.55      0.01      1.88         0.01
  YS02001790YS02001791        0.01      0.01      0.01      0.89         0.01
  YS02001793JiankangQianchi        0.01      0.01      7.31      0.01         0.01
  YS02001882YS02001884        0.72      0.72      0.78      0.01         0.01
  YS02001884YS02001887        1.03      1.03      1.07      0.01         0.01
  YS02001887YS02001890        1.10      1.10      1.12      0.01         0.01
  YS02001890YS02001895        0.69      0.69      1.15      0.01         0.01
  YS02001895YS02001898        0.67      0.67      0.69      0.01         0.01
  YS02001898YS02001901        0.70      0.70      1.03      0.01         0.01
  YS02001901YS02001904        0.87      0.87      1.03      0.01         0.01
  YS02001904YS02001907        0.87      0.87      1.86      0.01         0.01
  YS02001907YS02006553        1.93      1.93      1.96      0.01         0.01
  YS02001910YS02001907        1.15      1.15      1.85      0.01         0.01
  YS02001915YS02001910        0.72      0.72      1.15      0.01         0.01
  YS02001918YS02001915        0.52      0.52      0.72      0.01         0.01
  YS02001920YS02001918        0.52      0.52      0.55      0.01         0.01
  YS02001923YS02001920        0.43      0.43      0.55      0.01         0.01
  YS02006553YS02006556        1.33      1.33      1.87      0.01         0.01
  YS02006556YS02006558        1.76      1.76      1.87      0.01         0.01
  YS02006558YS02006561        0.59      1.29      0.59      1.91         0.59
  YS02006561YS02001783        0.46      0.46      1.09      0.01         0.01
  YS02163301YS02001633        1.89      1.89      1.91      0.01         0.01
  YS02163601YS02164001        1.85      1.85      1.92      0.90         0.01
  YS02164001YS02001641        1.84      1.85      1.84      1.95         1.84
  YSB1154YSB6556              1.92      1.92      1.97      0.01         0.01
  YSB1171HS02004479           1.86      1.86      1.97      0.01         0.01
  YSB1174YSB1171              1.95      1.95      2.03      0.01         0.01
  YSB6556YSB1171              1.92      1.92      2.08      0.01         0.01
  
  
  ***************
  Pumping Summary
  ***************
  
  ---------------------------------------------------------------------------------------------------------
                                                  Min       Avg       Max     Total     Power    % Time Off
                        Percent   Number of      Flow      Flow      Flow    Volume     Usage    Pump Curve
  Pump                 Utilized   Start-Ups       LPS       LPS       LPS  10^6 ltr     Kw-hr    Low   High
  ---------------------------------------------------------------------------------------------------------
  CC-R1                   19.03          11      0.00    747.56   1024.50     3.998     72.27    0.0   14.5
  CC-R2                   31.90          30      0.00   1019.20   1024.50     9.311    166.10    0.0   32.4
  CC-S1                   30.68          31      0.00    276.68    300.00     2.402     19.80    0.0    0.0
  CC-S2                   30.15          22      0.00    298.30    300.00     2.575     21.14    0.0    0.0
  JK-R1                    5.07          14      0.00   1052.46   1500.00     1.527     17.71    0.0    0.0
  JK-R2                    9.16          33      0.00   1493.60   1500.00     3.933     32.66    0.0    0.0
  JK-S                    11.48          20      0.00    407.87    450.00     1.344     20.45    0.0    0.0
  XR-1                    97.91           2      0.00     95.00     95.00     2.679      9.61    0.0    0.0
  XR-2                    93.94           2      0.00     95.00     95.00     2.570      8.77    0.0    0.0
  XR-3                     0.00           1      0.00     95.00     95.00     0.000      0.00    0.0    0.0
  XR-4                     0.00           1      0.00     95.00     95.00     0.000      0.00    0.0    0.0
  

  Analysis begun on:  Tue Jul 18 18:18:28 2023
  Analysis ended on:  Tue Jul 18 18:18:36 2023
  Total elapsed time: 00:00:08