
  OWA STORM WATER MANAGEMENT MODEL - VERSION v5.2.3 (OWA 2023-06-06)
  ------------------------------------------------------------

  WARNING 04: minimum elevation drop used for Conduit WS02004404WS02004405
  WARNING 03: negative offset ignored for Link YS02001904YS02001907
  
  ****************
  Analysis Options
  ****************
  Flow Units ............... LPS
  Process Models:
    Rainfall/Runoff ........ YES
    RDII ................... NO
    Snowmelt ............... NO
    Groundwater ............ NO
    Flow Routing ........... YES
    Ponding Allowed ........ NO
    Water Quality .......... NO
  Infiltration Method ...... HORTON
  Flow Routing Method ...... DYNWAVE
  Surcharge Method ......... EXTRAN
  Starting Date ............ 08/28/2015 08:00:00
  Ending Date .............. 08/28/2015 16:00:00
  Antecedent Dry Days ...... 8.0
  Report Time Step ......... 00:01:00
  Wet Time Step ............ 00:01:00
  Dry Time Step ............ 00:01:00
  Routing Time Step ........ 30.00 sec
  Variable Time Step ....... YES
  Maximum Trials ........... 8
  Number of Threads ........ 2
  Head Tolerance ........... 0.001500 m
  
  
  **************************        Volume         Depth
  Runoff Quantity Continuity     hectare-m            mm
  **************************     ---------       -------
  Total Precipitation ......         1.436        43.293
  Evaporation Loss .........         0.000         0.000
  Infiltration Loss ........         0.095         2.878
  Surface Runoff ...........         1.308        39.429
  Final Storage ............         0.033         0.994
  Continuity Error (%) .....        -0.017
  
  
  **************************        Volume        Volume
  Flow Routing Continuity        hectare-m      10^6 ltr
  **************************     ---------     ---------
  Dry Weather Inflow .......         0.025         0.251
  Wet Weather Inflow .......         1.308        13.078
  Groundwater Inflow .......         0.000         0.000
  RDII Inflow ..............         0.000         0.000
  External Inflow ..........         0.083         0.834
  External Outflow .........         1.322        13.219
  Flooding Loss ............         0.188         1.885
  Evaporation Loss .........         0.000         0.000
  Exfiltration Loss ........         0.000         0.000
  Initial Stored Volume ....         0.243         2.431
  Final Stored Volume ......         0.181         1.813
  Continuity Error (%) .....        -1.948
  
  
  *************************
  Highest Continuity Errors
  *************************
  Node YS02001884 (4.91%)
  Node WS02006256 (-4.50%)
  Node YS02001583 (-4.49%)
  Node YS02001774 (1.78%)
  Node WS02006111 (-1.22%)
  
  
  ***************************
  Time-Step Critical Elements
  ***************************
  Link WS02006252WS02006251 (40.05%)
  Link WS02006238WS02006235 (21.51%)
  Link WS02004404WS02004405 (12.67%)
  Link WS02003066WSF200 (6.77%)
  Link WS02006235WS02006234 (4.56%)
  
  
  ********************************
  Highest Flow Instability Indexes
  ********************************
  Link WS02006113WS02006111 (30)
  Link WS02006256WS02006235 (18)
  Link WS02006238WS02006235 (14)
  Link WS02006252WS02006251 (12)
  Link WS02006111WS02006112 (12)
  
  
  *********************************
  Most Frequent Nonconverging Nodes
  *********************************
  Node CC-1 (10.98%)
  Node CC-2 (10.98%)
  Node JK-1 (10.98%)
  Node JK-2 (10.98%)
  Node WSC (10.98%)
  
  
  *************************
  Routing Time Step Summary
  *************************
  Minimum Time Step           :     0.00 sec
  Average Time Step           :     2.50 sec
  Maximum Time Step           :    30.00 sec
  % of Time in Steady State   :     0.00
  Average Iterations per Step :     3.10
  % of Steps Not Converging   :    10.98
  Time Step Frequencies       :
     30.000 - 13.228 sec      :     0.01 %
     13.228 -  5.833 sec      :    10.21 %
      5.833 -  2.572 sec      :    29.89 %
      2.572 -  1.134 sec      :    17.30 %
      1.134 -  0.500 sec      :    42.59 %
  
  
  ***************************
  Subcatchment Runoff Summary
  ***************************
  
  ------------------------------------------------------------------------------------------------------------------------------
                            Total      Total      Total      Total     Imperv       Perv      Total       Total     Peak  Runoff
                           Precip      Runon       Evap      Infil     Runoff     Runoff     Runoff      Runoff   Runoff   Coeff
  Subcatchment                 mm         mm         mm         mm         mm         mm         mm    10^6 ltr      LPS
  ------------------------------------------------------------------------------------------------------------------------------
  sub60                     43.29       0.00       0.00       1.74      36.89       3.46      40.35        0.53   336.19   0.932
  sub61                     43.29       0.00       0.00       2.52      34.80       4.84      39.64        0.73   465.03   0.916
  sub62                     43.29       0.00       0.00       1.16      38.54       2.31      40.84        1.12   658.62   0.943
  sub63                     43.29       0.00       0.00       4.67      29.76       7.89      37.66        0.85   517.85   0.870
  sub64                     43.29       0.00       0.00       2.36      35.59       4.14      39.73        0.95   531.82   0.918
  sub65                     43.29       0.00       0.00       2.04      36.41       3.59      40.00        1.10   593.11   0.924
  sub66                     43.29       0.00       0.00       5.73      29.66       6.83      36.49        1.70   763.35   0.843
  sub67                     43.29       0.00       0.00       1.12      38.58       2.35      40.93        0.76   510.15   0.945
  sub68                     43.29       0.00       0.00       2.09      36.04       3.97      40.01        1.10   673.24   0.924
  sub69                     43.29       0.00       0.00       1.85      36.68       4.65      41.33        1.53   791.44   0.955
  sub70                     43.29       0.00       0.00       6.09      28.41       8.63      37.04        1.07   431.21   0.856
  sub71                     43.29       0.00       0.00       1.19      38.50       2.27      40.77        1.07   577.50   0.942
  sub72                     43.29       0.00       0.00       1.06      38.86       1.97      40.83        0.56   278.98   0.943
  
  
  ******************
  Node Depth Summary
  ******************
  
  ---------------------------------------------------------------------------------
                                 Average  Maximum  Maximum  Time of Max    Reported
                                   Depth    Depth      HGL   Occurrence   Max Depth
  Node                 Type       Meters   Meters   Meters  days hr:min      Meters
  ---------------------------------------------------------------------------------
  WS02003060           JUNCTION     0.19     0.38     5.32     0  02:45        0.38
  WS02003066           JUNCTION     0.17     0.30     5.85     0  02:45        0.30
  WS02003067           JUNCTION     0.45     0.70     6.02     0  02:45        0.70
  WS02003069           JUNCTION     0.21     0.43     5.01     0  02:42        0.43
  WS02003072           JUNCTION     0.26     0.50     4.87     0  02:42        0.50
  WS02003073           JUNCTION     0.14     0.30     4.36     0  02:43        0.30
  WS02004401           JUNCTION     0.53     0.85     6.85     0  02:42        0.85
  WS02004402           JUNCTION     0.57     0.88     6.84     0  02:42        0.88
  WS02004403           JUNCTION     0.59     0.89     6.82     0  02:43        0.89
  WS02004404           JUNCTION     0.67     0.96     6.81     0  02:43        0.96
  WS02004405           JUNCTION     0.67     0.96     6.81     0  02:43        0.96
  WS02004406           JUNCTION     0.68     0.96     6.79     0  02:43        0.96
  WS02004407           JUNCTION     0.14     0.30     6.61     0  02:43        0.30
  WS02004409           JUNCTION     0.32     0.67     6.44     0  02:43        0.67
  WS02004410           JUNCTION     0.34     0.68     6.40     0  02:44        0.68
  WS02004411           JUNCTION     0.37     0.69     6.37     0  02:44        0.69
  WS02004412           JUNCTION     0.40     0.70     6.34     0  02:44        0.70
  WS02004413           JUNCTION     0.56     0.86     6.33     0  02:44        0.86
  WS02006109           JUNCTION     0.58     1.03     7.65     0  02:22        0.98
  WS02006110           JUNCTION     0.59     0.98     7.57     0  02:22        0.93
  WS02006111           JUNCTION     0.15     0.90     7.60     0  00:00        0.40
  WS02006112           JUNCTION     0.68     2.68     8.56     0  00:00        1.14
  WS02006113           JUNCTION     0.22     1.40     8.29     0  00:00        0.46
  WS02006115           JUNCTION     0.41     1.65     7.79     0  00:00        0.86
  WS02006116           JUNCTION     0.50     1.06     7.10     0  00:00        0.83
  WS02006228           JUNCTION     0.56     1.06     7.71     0  02:22        1.03
  WS02006229           JUNCTION     0.53     1.07     7.77     0  02:22        1.04
  WS02006230           JUNCTION     0.52     1.19     7.93     0  02:22        1.15
  WS02006231           JUNCTION     0.34     0.94     8.06     0  02:22        0.90
  WS02006232           JUNCTION     0.46     1.62     8.66     0  00:15        1.08
  WS02006234           JUNCTION     0.38     1.63     8.79     0  00:15        1.09
  WS02006235           JUNCTION     0.41     1.27     8.43     0  00:15        1.16
  WS02006238           JUNCTION     0.44     1.28     8.42     0  00:15        1.19
  WS02006239           JUNCTION     0.39     1.34     8.55     0  00:15        1.18
  WS02006240           JUNCTION     0.36     1.82     9.11     0  00:15        1.14
  WS02006242           JUNCTION     0.43     1.38     8.64     0  00:15        1.22
  WS02006243           JUNCTION     0.34     1.37     8.79     0  00:15        1.13
  WS02006245           JUNCTION     0.34     1.15     8.63     0  02:28        1.15
  WS02006247           JUNCTION     0.36     1.17     8.67     0  02:28        1.17
  WS02006248           JUNCTION     0.32     1.09     8.68     0  02:28        1.09
  WS02006249           JUNCTION     0.35     1.09     8.69     0  02:21        1.09
  WS02006251           JUNCTION     0.35     1.40     9.07     0  02:21        1.12
  WS02006252           JUNCTION     0.27     1.50     9.74     0  02:00        0.68
  WS02006256           JUNCTION     0.84     2.35     9.28     0  00:09        2.35
  WSF200               JUNCTION     0.13     0.29     5.52     0  02:45        0.29
  YS02001580           JUNCTION     0.10     1.05     9.59     0  02:08        0.94
  YS02001583           JUNCTION     0.13     1.14     9.64     0  02:08        0.83
  YS02001586           JUNCTION     0.21     1.13     9.30     0  02:08        1.13
  YS02001590           JUNCTION     0.31     1.38     9.24     0  02:16        1.37
  YS02001593           JUNCTION     0.24     1.30     9.16     0  02:16        1.28
  YS02001596           JUNCTION     0.32     1.66     9.08     0  02:08        1.65
  YS02001600           JUNCTION     0.40     1.87     9.00     0  02:08        1.86
  YS02001601           JUNCTION     0.59     2.06     8.90     0  02:08        2.06
  YS02001602           JUNCTION     0.50     1.87     8.77     0  02:08        1.87
  YS02001605           JUNCTION     0.46     1.78     8.68     0  02:16        1.78
  YS02001607           JUNCTION     0.45     1.65     8.49     0  02:12        1.64
  YS02001610           JUNCTION     0.49     1.68     8.48     0  02:08        1.68
  YS02001613           JUNCTION     0.45     1.65     8.49     0  02:11        1.65
  YS02001616           JUNCTION     0.38     1.61     8.52     0  02:16        1.61
  YS02001619           JUNCTION     0.36     1.57     8.50     0  02:12        1.57
  YS02001622           JUNCTION     0.35     1.62     8.52     0  02:16        1.62
  YS02001625           JUNCTION     0.59     1.78     8.38     0  02:11        1.78
  YS02001629           JUNCTION     0.48     1.85     8.40     0  02:11        1.85
  YS02001633           JUNCTION     0.55     2.04     8.50     0  02:13        1.98
  YS02001641           JUNCTION     0.52     2.01     8.44     0  02:16        1.89
  YS02001644           JUNCTION     0.51     1.92     8.35     0  02:13        1.92
  YS02001647           JUNCTION     0.29     1.83     8.44     0  02:14        1.64
  YS02001649           JUNCTION     0.33     1.99     8.38     0  02:14        1.68
  YS02001652           JUNCTION     0.21     2.12     8.72     0  02:12        1.50
  YS02001655           JUNCTION     0.16     2.20     9.05     0  02:12        1.27
  YS02001658           JUNCTION     0.11     2.30     9.44     0  02:14        1.01
  YS02001661           JUNCTION     0.14     0.77     8.17     0  02:14        0.76
  YS02001664           JUNCTION     0.06     0.28     8.20     0  02:13        0.27
  YS02001745           JUNCTION     0.06     0.52     8.04     0  02:14        0.52
  YS02001748           JUNCTION     0.10     0.96     8.04     0  02:14        0.83
  YS02001751           JUNCTION     0.12     2.02     8.90     0  02:13        1.03
  YS02001754           JUNCTION     0.17     2.17     8.78     0  02:13        1.29
  YS02001757           JUNCTION     0.32     1.91     8.18     0  02:14        1.65
  YS02001759           JUNCTION     0.27     1.83     8.19     0  02:14        1.62
  YS02001762           JUNCTION     0.26     2.10     8.50     0  02:12        1.66
  YS02001765           JUNCTION     0.24     1.96     8.41     0  02:12        1.69
  YS02001767           JUNCTION     0.24     1.96     8.45     0  02:12        1.77
  YS02001770           JUNCTION     0.26     1.95     8.45     0  02:12        1.94
  YS02001774           JUNCTION     0.32     2.03     8.45     0  02:12        2.01
  YS02001779           JUNCTION     0.16     1.68     8.37     0  02:12        1.68
  YS02001783           JUNCTION     0.27     1.55     7.69     0  02:11        1.26
  YS02001784           JUNCTION     0.28     1.29     7.35     0  02:11        1.10
  YS02001786           JUNCTION     0.24     0.98     7.01     0  02:11        0.87
  YS02001788           JUNCTION     0.17     0.62     6.59     0  02:12        0.62
  YS02001790           JUNCTION     0.20     0.71     6.36     0  02:15        0.71
  YS02001791           JUNCTION     0.13     0.43     5.90     0  02:18        0.42
  YS02001793           JUNCTION     0.07     0.27     5.10     0  02:12        0.26
  YS02001882           JUNCTION     0.34     1.83     8.55     0  02:10        1.62
  YS02001884           JUNCTION     0.42     1.93     8.55     0  02:10        1.73
  YS02001887           JUNCTION     0.49     1.93     8.47     0  02:10        1.80
  YS02001890           JUNCTION     0.52     1.81     8.32     0  02:10        1.81
  YS02001895           JUNCTION     0.31     1.59     8.34     0  02:16        1.56
  YS02001898           JUNCTION     0.32     1.60     8.34     0  02:16        1.56
  YS02001901           JUNCTION     0.42     1.71     8.32     0  02:16        1.66
  YS02001904           JUNCTION     0.40     1.66     8.29     0  02:16        1.63
  YS02001907           JUNCTION     0.70     1.96     8.25     0  02:11        1.96
  YS02001910           JUNCTION     0.51     2.00     8.51     0  02:12        1.81
  YS02001915           JUNCTION     0.34     2.00     8.72     0  02:10        1.68
  YS02001918           JUNCTION     0.19     1.81     8.88     0  02:12        1.36
  YS02001920           JUNCTION     0.27     2.13     9.14     0  02:12        1.43
  YS02001923           JUNCTION     0.14     2.03     9.29     0  02:12        1.21
  YS02001926           JUNCTION     0.17     1.90     9.35     0  02:12        1.03
  YS02001929           JUNCTION     0.10     1.78     9.47     0  02:12        0.80
  YS02006553           JUNCTION     0.70     2.06     8.35     0  02:11        1.96
  YS02006556           JUNCTION     0.67     2.14     8.45     0  02:11        1.93
  YS02006558           JUNCTION     0.72     2.20     8.47     0  02:11        1.96
  YS02006561           JUNCTION     0.17     1.39     8.05     0  02:11        0.88
  YS02163301           JUNCTION     0.50     1.94     8.45     0  02:13        1.90
  YS02163601           JUNCTION     0.58     2.08     8.48     0  02:16        1.98
  YS02164001           JUNCTION     0.51     2.03     8.49     0  02:16        1.89
  CC-1                 OUTFALL      0.00     0.00     0.00     0  00:00        0.00
  CC-2                 OUTFALL      0.00     0.00     0.00     0  00:00        0.00
  JK-1                 OUTFALL      0.00     0.00     0.00     0  00:00        0.00
  JK-2                 OUTFALL      0.00     0.00     0.00     0  00:00        0.00
  WSC                  OUTFALL      0.14     0.30     0.97     0  02:54        0.30
  CC-storage           STORAGE      0.70     1.29     6.79     0  02:38        1.29
  JK-storage           STORAGE      1.53     4.00     4.80     0  02:17        4.00
  
  
  *******************
  Node Inflow Summary
  *******************
  
  -------------------------------------------------------------------------------------------------
                                  Maximum  Maximum                  Lateral       Total        Flow
                                  Lateral    Total  Time of Max      Inflow      Inflow     Balance
                                   Inflow   Inflow   Occurrence      Volume      Volume       Error
  Node                 Type           LPS      LPS  days hr:min    10^6 ltr    10^6 ltr     Percent
  -------------------------------------------------------------------------------------------------
  WS02003060           JUNCTION     16.53   553.26     0  02:45       0.476        3.62       0.066
  WS02003066           JUNCTION      0.00   536.53     0  02:45           0        3.14       0.043
  WS02003067           JUNCTION      0.00   536.50     0  02:45           0        3.15       0.132
  WS02003069           JUNCTION      0.32   553.37     0  02:41     0.00922        3.62       0.108
  WS02003072           JUNCTION      0.00   553.27     0  02:42           0        3.62       0.190
  WS02003073           JUNCTION      1.82   555.04     0  02:43      0.0524        3.67       0.155
  WS02004401           JUNCTION      0.00  1677.78     0  00:00           0        3.25       0.348
  WS02004402           JUNCTION      0.00  1171.33     0  00:01           0        3.24       0.342
  WS02004403           JUNCTION      0.00   884.75     0  00:01           0        3.23       0.334
  WS02004404           JUNCTION      0.16   832.59     0  00:01     0.00467        3.22       0.286
  WS02004405           JUNCTION      0.04   776.49     0  00:01      0.0011        3.22       0.378
  WS02004406           JUNCTION      0.00   711.76     0  00:02           0         3.2       0.678
  WS02004407           JUNCTION      0.00   537.78     0  02:43           0        3.18       0.032
  WS02004409           JUNCTION      0.00   537.44     0  02:43           0        3.18       0.081
  WS02004410           JUNCTION      0.00   537.18     0  02:43           0        3.18       0.138
  WS02004411           JUNCTION      0.00   536.83     0  02:44           0        3.17       0.179
  WS02004412           JUNCTION      0.00   536.73     0  02:44           0        3.17       0.234
  WS02004413           JUNCTION      0.00   536.65     0  02:44           0        3.16       0.430
  WS02006109           JUNCTION      1.23  1308.01     0  00:00      0.0354        3.18       0.234
  WS02006110           JUNCTION      0.00   542.14     0  02:22           0        3.15      -1.150
  WS02006111           JUNCTION      0.00  1176.04     0  00:00           0        3.19      -1.203
  WS02006112           JUNCTION      0.00  2307.30     0  00:00           0        3.23      -0.025
  WS02006113           JUNCTION      0.00   557.00     0  02:22           0        3.15      -1.570
  WS02006115           JUNCTION      0.00   899.27     0  00:00           0         3.2      -1.005
  WS02006116           JUNCTION      0.00  1098.16     0  00:01           0        3.23      -0.719
  WS02006228           JUNCTION      0.00   541.43     0  02:22           0        3.13       0.101
  WS02006229           JUNCTION      0.00   541.11     0  02:22           0        3.12       0.313
  WS02006230           JUNCTION     10.28   541.31     0  02:21       0.296         3.1       0.070
  WS02006231           JUNCTION      0.00   532.48     0  02:21           0        2.79      -0.016
  WS02006232           JUNCTION      0.00   532.97     0  02:21           0         2.8       0.243
  WS02006234           JUNCTION      0.00   533.70     0  02:21           0        2.78      -0.548
  WS02006235           JUNCTION      0.00   533.32     0  02:21           0         2.9       0.442
  WS02006238           JUNCTION      0.00   420.59     0  02:50           0        2.34      -0.341
  WS02006239           JUNCTION      0.00   420.31     0  02:50           0        2.26      -0.160
  WS02006240           JUNCTION      0.00   417.98     0  02:50           0        2.22      -0.014
  WS02006242           JUNCTION      0.00   418.51     0  02:50           0        2.22       0.043
  WS02006243           JUNCTION      0.00   417.78     0  02:50           0        2.22      -0.277
  WS02006245           JUNCTION      0.00   416.66     0  02:50           0        2.23       0.573
  WS02006247           JUNCTION      0.00   416.28     0  02:50           0        2.23      -0.015
  WS02006248           JUNCTION      0.00   417.63     0  00:05           0        2.23      -0.083
  WS02006249           JUNCTION      0.00   824.67     0  00:05           0        2.37       0.850
  WS02006251           JUNCTION      0.08   460.09     0  00:05     0.00222        2.35      -0.743
  WS02006252           JUNCTION      0.00   400.00     0  00:05           0        2.34      -0.710
  WS02006256           JUNCTION      0.00   300.00     0  00:15           0       0.793      -4.304
  WSF200               JUNCTION      0.00   536.56     0  02:45           0        3.14       0.014
  YS02001580           JUNCTION      0.00   107.01     0  02:08           0      0.0039      -6.568
  YS02001583           JUNCTION      0.00   162.04     0  02:08           0       0.015      -4.294
  YS02001586           JUNCTION    431.21   431.57     0  02:16        1.07        1.08       0.110
  YS02001590           JUNCTION      0.00   318.64     0  02:16           0        1.01      -0.047
  YS02001593           JUNCTION      0.00   318.47     0  02:16           0        1.01       0.006
  YS02001596           JUNCTION      0.00   317.79     0  02:24           0        1.01      -0.012
  YS02001600           JUNCTION      0.00   317.89     0  02:23           0        1.01       0.005
  YS02001601           JUNCTION    791.44  1109.01     0  02:14        1.53        2.54       0.025
  YS02001602           JUNCTION      0.00   516.87     0  02:08           0        1.91       0.019
  YS02001605           JUNCTION      0.00   516.47     0  02:08           0        1.85       0.027
  YS02001607           JUNCTION      0.00   516.32     0  02:08           0        1.85       0.103
  YS02001610           JUNCTION      0.00   518.44     0  02:07           0        1.85       0.111
  YS02001613           JUNCTION      0.00   521.22     0  02:07           0        1.69       0.096
  YS02001616           JUNCTION      0.00   516.08     0  02:07           0        1.69       0.021
  YS02001619           JUNCTION    763.35   931.09     0  02:11         1.7        3.39      -0.001
  YS02001622           JUNCTION      0.00   930.84     0  02:11           0        3.39      -0.004
  YS02001625           JUNCTION      0.00   931.05     0  02:11           0        3.39       0.254
  YS02001629           JUNCTION      0.00   930.94     0  02:11           0        3.15       0.017
  YS02001633           JUNCTION    593.31  1406.64     0  02:11        1.11        4.25       0.082
  YS02001641           JUNCTION      0.00  1406.75     0  02:11           0        4.25       0.064
  YS02001644           JUNCTION    531.86  1839.57     0  02:11       0.955         5.2       0.063
  YS02001647           JUNCTION      0.00  1839.67     0  02:11           0        5.19       0.008
  YS02001649           JUNCTION      0.00  2126.24     0  02:11           0        6.05       0.002
  YS02001652           JUNCTION      0.00   601.09     0  02:16           0       0.858      -0.103
  YS02001655           JUNCTION      0.15   608.81     0  02:16     0.00443       0.859       0.027
  YS02001658           JUNCTION      0.00   696.49     0  02:14           0       0.854      -0.024
  YS02001661           JUNCTION      0.00   525.86     0  02:13           0       0.855       0.038
  YS02001664           JUNCTION    517.85   517.85     0  02:14       0.855       0.855      -0.006
  YS02001745           JUNCTION    336.19   336.19     0  02:14        0.53        0.53       0.252
  YS02001748           JUNCTION      0.04   545.57     0  02:16      0.0013        0.53      -0.308
  YS02001751           JUNCTION      0.01   501.78     0  02:16    0.000317       0.535       0.117
  YS02001754           JUNCTION      0.26   399.26     0  02:15     0.00749       0.545      -0.213
  YS02001757           JUNCTION      0.00  3278.95     0  02:14           0        8.46       0.067
  YS02001759           JUNCTION    465.07  1141.96     0  02:14       0.728        1.86      -0.009
  YS02001762           JUNCTION      0.00   675.52     0  02:14           0        1.14       0.018
  YS02001765           JUNCTION      0.00   673.24     0  02:14           0        1.14       0.020
  YS02001767           JUNCTION      0.54   671.24     0  02:14      0.0154        1.14      -0.000
  YS02001770           JUNCTION    658.77   665.06     0  02:14        1.12        1.16      -0.005
  YS02001774           JUNCTION      0.00   319.46     0  02:12           0      0.0609       1.813
  YS02001779           JUNCTION      0.01   323.12     0  02:12    0.000144      0.0193      -2.319
  YS02001783           JUNCTION      0.00  1155.12     0  02:16           0         3.2       0.004
  YS02001784           JUNCTION      1.06  1157.68     0  02:16      0.0305        3.23       0.015
  YS02001786           JUNCTION      0.06  1153.89     0  02:12     0.00162        3.23       0.020
  YS02001788           JUNCTION      0.07  1156.75     0  02:16     0.00204        3.24       0.010
  YS02001790           JUNCTION      0.15  1166.95     0  02:13     0.00446        3.24       0.028
  YS02001791           JUNCTION      0.00  1264.62     0  02:16           0        3.24      -0.017
  YS02001793           JUNCTION      0.00  1217.50     0  02:16           0        3.24       0.008
  YS02001882           JUNCTION      0.00    65.68     0  02:10           0      0.0123       4.363
  YS02001884           JUNCTION      0.00    74.16     0  02:09           0      0.0479       5.164
  YS02001887           JUNCTION    510.60   510.60     0  02:13       0.774       0.807       0.541
  YS02001890           JUNCTION      0.00   510.90     0  02:13           0       0.767       0.650
  YS02001895           JUNCTION      0.00   504.19     0  02:13           0        0.76       0.184
  YS02001898           JUNCTION      0.00   504.08     0  02:13           0       0.759       0.047
  YS02001901           JUNCTION      0.00   504.15     0  02:13           0       0.761       0.403
  YS02001904           JUNCTION      0.00   504.15     0  02:13           0       0.765       0.332
  YS02001907           JUNCTION      0.00  1501.00     0  02:13           0        2.47       0.709
  YS02001910           JUNCTION      0.00  1002.38     0  02:13           0        1.71       0.409
  YS02001915           JUNCTION    577.52  1002.22     0  02:13        1.07        1.75       0.084
  YS02001918           JUNCTION      0.00   439.38     0  02:13           0       0.712       0.023
  YS02001920           JUNCTION      2.87   439.15     0  02:13      0.0827       0.696       0.131
  YS02001923           JUNCTION      0.04   420.72     0  02:11     0.00109       0.598      -0.049
  YS02001926           JUNCTION      0.05   585.85     0  02:12      0.0015       0.576       0.013
  YS02001929           JUNCTION    278.98   404.13     0  02:12       0.561       0.564       0.003
  YS02006553           JUNCTION      0.00   793.32     0  02:24           0        2.12       0.544
  YS02006556           JUNCTION      0.00   793.76     0  02:24           0        2.13       0.366
  YS02006558           JUNCTION    674.12  1179.53     0  02:11        1.13        3.23       0.104
  YS02006561           JUNCTION      0.00  1180.14     0  02:11           0         3.2      -0.001
  YS02163301           JUNCTION      0.00   930.99     0  02:11           0        3.15       0.046
  YS02163601           JUNCTION      0.11  1406.75     0  02:11     0.00317        4.25       0.115
  YS02164001           JUNCTION      0.00  1406.88     0  02:11           0        4.25       0.055
  CC-1                 OUTFALL       0.00   683.00     0  01:45           0        2.17       0.000
  CC-2                 OUTFALL       0.00   683.00     0  00:15           0        4.81       0.000
  JK-1                 OUTFALL       0.00  1000.00     0  00:05           0         1.4       0.000
  JK-2                 OUTFALL       0.00  1000.00     0  00:05           0        1.17       0.000
  WSC                  OUTFALL       0.00   554.99     0  02:54           0        3.66       0.000
  CC-storage           STORAGE       0.00  3279.42     0  02:14           0        10.7      -0.279
  JK-storage           STORAGE       0.00  1236.37     0  02:23           0        3.39      -0.467
  
  
  **********************
  Node Surcharge Summary
  **********************
  
  Surcharging occurs when water rises above the top of the highest conduit.
  ---------------------------------------------------------------------
                                               Max. Height   Min. Depth
                                   Hours       Above Crown    Below Rim
  Node                 Type      Surcharged         Meters       Meters
  ---------------------------------------------------------------------
  WS02006109           JUNCTION        0.93          0.212        1.608
  WS02006110           JUNCTION        0.47          0.072        1.778
  WS02006111           JUNCTION        0.01          0.087        1.783
  WS02006112           JUNCTION        0.45          1.680        0.000
  WS02006113           JUNCTION        0.01          0.600        1.330
  WS02006115           JUNCTION        0.01          0.642        1.608
  WS02006116           JUNCTION        0.01          0.000        2.290
  WS02006228           JUNCTION        0.93          0.230        1.970
  WS02006229           JUNCTION        0.93          0.273        2.177
  WS02006230           JUNCTION        0.46          0.109        1.461
  WS02006231           JUNCTION        0.48          0.226        1.304
  WS02006232           JUNCTION        0.98          0.919        0.561
  WS02006234           JUNCTION        0.54          0.910        0.330
  WS02006235           JUNCTION        0.93          0.556        0.734
  WS02006238           JUNCTION        0.95          0.557        0.873
  WS02006239           JUNCTION        0.93          0.600        0.690
  WS02006240           JUNCTION        0.93          1.112        0.278
  WS02006242           JUNCTION        0.97          0.645        0.175
  WS02006243           JUNCTION        0.92          0.659        0.111
  WS02006245           JUNCTION        0.91          0.436        0.414
  WS02006247           JUNCTION        0.91          0.458        0.302
  WS02006248           JUNCTION        0.91          0.370        0.010
  WS02006249           JUNCTION        0.90          0.390        0.000
  WS02006251           JUNCTION        0.49          0.366        0.814
  WS02006252           JUNCTION        1.27          1.100        0.000
  WS02006256           JUNCTION        6.05          2.050        0.000
  YS02001580           JUNCTION        0.36          0.450        0.000
  YS02001583           JUNCTION        0.37          0.500        0.000
  YS02001586           JUNCTION        0.49          0.510        0.000
  YS02001590           JUNCTION        0.55          0.728        0.022
  YS02001593           JUNCTION        0.56          0.679        0.161
  YS02001596           JUNCTION        0.66          0.931        0.139
  YS02001600           JUNCTION        0.80          1.187        0.003
  YS02001601           JUNCTION        1.17          1.440        0.000
  YS02001602           JUNCTION        1.05          1.270        0.000
  YS02001605           JUNCTION        0.99          1.180        0.000
  YS02001607           JUNCTION        0.50          0.646        0.034
  YS02001610           JUNCTION        0.53          0.680        0.000
  YS02001613           JUNCTION        0.50          0.653        0.047
  YS02001616           JUNCTION        0.46          0.610        0.000
  YS02001619           JUNCTION        0.45          0.574        0.036
  YS02001622           JUNCTION        0.44          0.620        0.000
  YS02001625           JUNCTION        0.61          0.780        0.000
  YS02001629           JUNCTION        0.39          0.470        0.000
  YS02001633           JUNCTION        0.62          1.023        0.037
  YS02001641           JUNCTION        0.53          1.006        0.094
  YS02001644           JUNCTION        0.49          0.920        0.000
  YS02001647           JUNCTION        0.29          0.829        0.071
  YS02001649           JUNCTION        0.36          0.994        0.056
  YS02001652           JUNCTION        0.22          1.095        0.035
  YS02001655           JUNCTION        0.10          1.200        0.000
  YS02001658           JUNCTION        0.01          1.300        0.000
  YS02001751           JUNCTION        0.03          1.025        0.175
  YS02001754           JUNCTION        0.11          1.120        0.030
  YS02001757           JUNCTION        0.37          0.915        0.295
  YS02001759           JUNCTION        0.31          0.830        0.380
  YS02001762           JUNCTION        0.28          1.102        0.048
  YS02001765           JUNCTION        0.26          0.959        0.141
  YS02001767           JUNCTION        0.24          0.958        0.072
  YS02001770           JUNCTION        0.22          0.920        0.000
  YS02001774           JUNCTION        0.28          1.029        0.021
  YS02001779           JUNCTION        0.13          0.680        0.000
  YS02001783           JUNCTION        0.37          0.748        0.852
  YS02001784           JUNCTION        0.35          0.486        1.004
  YS02001786           JUNCTION        0.25          0.176        1.254
  YS02001882           JUNCTION        0.32          0.830        0.000
  YS02001884           JUNCTION        0.33          0.870        0.000
  YS02001887           JUNCTION        0.36          0.883        0.067
  YS02001890           JUNCTION        0.37          0.760        0.000
  YS02001895           JUNCTION        0.31          0.588        0.162
  YS02001898           JUNCTION        0.30          0.575        0.165
  YS02001901           JUNCTION        0.35          0.708        0.162
  YS02001904           JUNCTION        0.34          0.656        0.194
  YS02001907           JUNCTION        0.57          0.950        0.000
  YS02001910           JUNCTION        0.40          1.002        0.098
  YS02001915           JUNCTION        0.32          1.000        0.000
  YS02001918           JUNCTION        0.24          0.810        0.000
  YS02001920           JUNCTION        0.25          1.131        0.009
  YS02001923           JUNCTION        0.01          0.820        0.000
  YS02001926           JUNCTION        0.01          0.900        0.000
  YS02001929           JUNCTION        0.01          0.780        0.000
  YS02006553           JUNCTION        0.58          1.062        0.128
  YS02006556           JUNCTION        0.48          1.097        0.253
  YS02006558           JUNCTION        0.47          1.100        0.300
  YS02006561           JUNCTION        0.21          0.586        0.564
  YS02163301           JUNCTION        0.60          0.937        0.093
  YS02163601           JUNCTION        0.65          1.080        0.000
  YS02164001           JUNCTION        0.54          1.028        0.072
  
  
  *********************
  Node Flooding Summary
  *********************
  
  Flooding refers to all water that overflows a node, whether it ponds or not.
  --------------------------------------------------------------------------
                                                             Total   Maximum
                                 Maximum   Time of Max       Flood    Ponded
                        Hours       Rate    Occurrence      Volume     Depth
  Node                 Flooded       LPS   days hr:min    10^6 ltr    Meters
  --------------------------------------------------------------------------
  WS02006112              0.01   1547.89      0  00:00       0.047     0.000
  WS02006249              0.48    107.77      0  02:21       0.123     0.000
  WS02006252              0.01      0.91      0  02:18       0.000     0.000
  WS02006256              0.73    286.00      0  04:55       0.252     0.000
  YS02001580              0.01     80.67      0  02:08       0.000     0.000
  YS02001583              0.01     41.08      0  02:08       0.000     0.000
  YS02001586              0.25    114.23      0  02:16       0.060     0.000
  YS02001601              0.42    711.21      0  02:14       0.629     0.000
  YS02001602              0.30     61.96      0  02:25       0.058     0.000
  YS02001605              0.01      0.01      0  02:16       0.000     0.000
  YS02001610              0.24    267.32      0  02:16       0.157     0.000
  YS02001616              0.01      0.20      0  02:16       0.000     0.000
  YS02001622              0.01      0.12      0  02:16       0.000     0.000
  YS02001625              0.20    667.26      0  02:15       0.237     0.000
  YS02001629              0.02     19.95      0  02:16       0.000     0.000
  YS02001644              0.01     29.94      0  02:14       0.000     0.000
  YS02001655              0.01    138.13      0  02:12       0.000     0.000
  YS02001658              0.01    264.06      0  02:14       0.000     0.000
  YS02001770              0.01     80.61      0  02:12       0.000     0.000
  YS02001779              0.01    291.04      0  02:12       0.002     0.000
  YS02001882              0.01     28.04      0  02:10       0.000     0.000
  YS02001884              0.01     18.79      0  02:10       0.000     0.000
  YS02001890              0.04     35.42      0  02:10       0.001     0.000
  YS02001907              0.19   1016.76      0  02:13       0.335     0.000
  YS02001915              0.01     73.49      0  02:10       0.000     0.000
  YS02001918              0.01    170.53      0  02:12       0.002     0.000
  YS02001923              0.01    318.61      0  02:12       0.001     0.000
  YS02001926              0.01    473.08      0  02:12       0.001     0.000
  YS02001929              0.01    132.10      0  02:12       0.000     0.000
  YS02163601              0.01      5.00      0  02:16       0.000     0.000
  
  
  **********************
  Storage Volume Summary
  **********************
  
  ------------------------------------------------------------------------------------------------
                         Average    Avg   Evap  Exfil     Maximum    Max    Time of Max    Maximum
                          Volume   Pcnt   Pcnt   Pcnt      Volume   Pcnt     Occurrence    Outflow
  Storage Unit           1000 m³   Full   Loss   Loss     1000 m³   Full    days hr:min        LPS
  ------------------------------------------------------------------------------------------------
  CC-storage               1.947   30.4    0.0    0.0       3.591   56.0       0  02:38    1766.00
  JK-storage               0.077   26.4    0.0    0.0       0.201   69.0       0  02:17    2000.00
  
  
  ***********************
  Outfall Loading Summary
  ***********************
  
  -----------------------------------------------------------
                         Flow       Avg       Max       Total
                         Freq      Flow      Flow      Volume
  Outfall Node           Pcnt       LPS       LPS    10^6 ltr
  -----------------------------------------------------------
  CC-1                  25.73    683.00    683.00       2.174
  CC-2                  42.94    683.00    683.00       4.808
  JK-1                   7.75   1000.00   1000.00       1.403
  JK-2                  11.11   1000.00   1000.00       1.174
  WSC                   99.99    169.00    554.99       3.660
  -----------------------------------------------------------
  System                37.50   3535.00   3403.27      13.219
  
  
  ********************
  Link Flow Summary
  ********************
  
  -----------------------------------------------------------------------------
                                 Maximum  Time of Max   Maximum    Max/    Max/
                                  |Flow|   Occurrence   |Veloc|    Full    Full
  Link                 Type          LPS  days hr:min     m/sec    Flow   Depth
  -----------------------------------------------------------------------------
  1                    CONDUIT    554.99     0  02:54      2.83    0.19    0.30
  WS02003060WS02003069 CONDUIT    553.05     0  02:41      1.64    0.22    0.34
  WS02003066WSF200     CONDUIT    536.56     0  02:45      2.85    0.09    0.22
  WS02003067WS02003066 CONDUIT    536.53     0  02:45      1.21    0.17    0.42
  WS02003069WS02003072 CONDUIT    553.27     0  02:42      1.37    0.27    0.39
  WS02003072WS02003073 CONDUIT    553.22     0  02:43      1.44    1.19    0.37
  WS02004401WS02004402 CONDUIT   1171.33     0  00:01      2.51    1.41    0.86
  WS02004402WS02004403 CONDUIT    884.75     0  00:01      2.16    1.27    0.88
  WS02004403WS02004404 CONDUIT    832.43     0  00:01      1.96    0.60    0.93
  WS02004404WS02004405 CONDUIT    776.45     0  00:01      2.26    7.61    0.96
  WS02004405WS02004406 CONDUIT    711.76     0  00:02      2.15    1.40    0.96
  WS02004406WS02004407 CONDUIT    537.78     0  02:43      1.04    0.24    0.63
  WS02004407WS02004409 CONDUIT    537.44     0  02:43      1.95    0.19    0.48
  WS02004409WS02004410 CONDUIT    537.18     0  02:43      1.31    0.69    0.67
  WS02004410WS02004411 CONDUIT    536.83     0  02:44      1.19    0.73    0.69
  WS02004411WS02004412 CONDUIT    536.73     0  02:44      1.08    0.76    0.69
  WS02004412WS02004413 CONDUIT    536.65     0  02:44      1.10    0.36    0.78
  WS02004413WS02003067 CONDUIT    536.50     0  02:45      1.11    0.23    0.59
  WS02006109WS02006110 CONDUIT   1306.78     0  00:00      3.14    2.51    1.00
  WS02006110WS02006113 CONDUIT    557.00     0  02:22      1.34    0.51    1.00
  WS02006111WS02006112 CONDUIT   2307.30     0  00:00      9.18    1.10    0.91
  WS02006112WS02006115 CONDUIT    899.27     0  00:00      1.16    0.53    1.00
  WS02006113WS02006111 CONDUIT   1176.04     0  00:00      2.47    1.41    1.00
  WS02006115WS02006116 CONDUIT   1098.16     0  00:01      1.72    1.41    1.00
  WS02006116WS02004401 CONDUIT   1677.78     0  00:00      2.92    2.31    0.84
  WS02006228WS02006109 CONDUIT    541.41     0  02:22      1.40    2.37    1.00
  WS02006229WS02006228 CONDUIT    541.43     0  02:22      1.24    1.79    1.00
  WS02006230WS02006229 CONDUIT    541.11     0  02:22      1.41   12.04    1.00
  WS02006231WS02006230 CONDUIT    531.03     0  02:21      1.43    8.06    1.00
  WS02006232WS02006231 CONDUIT    532.48     0  02:21      1.38    1.12    1.00
  WS02006234WS02006232 CONDUIT    532.97     0  02:21      1.38    1.08    1.00
  WS02006235WS02006234 CONDUIT    533.70     0  02:21      1.39    5.63    1.00
  WS02006238WS02006235 CONDUIT    421.48     0  02:50      1.67    0.94    1.00
  WS02006239WS02006238 CONDUIT    420.59     0  02:50      1.27    1.35    1.00
  WS02006240WS02006239 CONDUIT    420.31     0  02:50      1.33    1.32    1.00
  WS02006242WS02006240 CONDUIT    417.98     0  02:50      1.17    1.66    1.00
  WS02006243WS02006242 CONDUIT    418.51     0  02:50      1.45    0.89    1.00
  WS02006245WS02006243 CONDUIT    417.78     0  02:50      1.46    1.24    1.00
  WS02006247WS02006245 CONDUIT    416.66     0  02:50      1.42    3.30    1.00
  WS02006248WS02006247 CONDUIT    416.28     0  02:50      1.53    0.91    1.00
  WS02006249WS02006248 CONDUIT    417.63     0  00:05      1.54    2.29    1.00
  WS02006251WS02006249 CONDUIT    824.67     0  00:05      2.86    2.38    1.00
  WS02006252WS02006251 CONDUIT    460.01     0  00:05     17.68    1.69    1.00
  WS02006256WS02006235 CONDUIT    287.79     0  04:10      4.18    3.05    1.00
  WSF200WS02003060     CONDUIT    536.73     0  02:45      2.06    0.12    0.28
  YS02001580YS02001583 CONDUIT    107.01     0  02:08      0.66    0.41    1.00
  YS02001583YS02001586 CONDUIT    158.59     0  02:08      0.67    0.24    1.00
  YS02001586YS02001590 CONDUIT    318.64     0  02:16      1.25    0.56    1.00
  YS02001590YS02001593 CONDUIT    318.47     0  02:16      1.13    2.00    1.00
  YS02001593YS02001596 CONDUIT    317.79     0  02:24      1.73    0.50    1.00
  YS02001596YS02001600 CONDUIT    317.89     0  02:23      1.21    0.62    1.00
  YS02001600YS02001601 CONDUIT    317.86     0  02:16      1.12    0.55    1.00
  YS02001601YS02001602 CONDUIT    516.87     0  02:08      1.83    1.87    1.00
  YS02001602YS02001605 CONDUIT    516.47     0  02:08      1.83   10.93    1.00
  YS02001605YS02001607 CONDUIT    516.32     0  02:08      1.83    2.83    1.00
  YS02001607YS02001610 CONDUIT    518.44     0  02:07      0.66    0.49    1.00
  YS02001610YS02001613 CONDUIT    521.22     0  02:07      0.66    0.60    1.00
  YS02001613YS02001616 CONDUIT    516.08     0  02:07      0.66    0.44    1.00
  YS02001616YS02001619 CONDUIT    502.67     0  02:08      0.67    0.87    1.00
  YS02001619YS02001622 CONDUIT    930.84     0  02:11      1.19    1.37    1.00
  YS02001622YS02001625 CONDUIT    931.05     0  02:11      1.19    0.50    1.00
  YS02001625YS02001629 CONDUIT    930.94     0  02:11      1.19    0.44    1.00
  YS02001629YS02163301 CONDUIT    930.99     0  02:11      1.19    1.15    1.00
  YS02001633YS02163601 CONDUIT   1406.64     0  02:11      1.79    1.48    1.00
  YS02001641YS02001644 CONDUIT   1406.35     0  02:11      1.79    4.55    1.00
  YS02001644YS02001647 CONDUIT   1839.67     0  02:11      2.35    1.08    1.00
  YS02001647YS02001649 CONDUIT   1859.78     0  02:11      2.37    0.98    1.00
  YS02001649YS02001757 CONDUIT   2132.73     0  02:11      2.72    1.29    1.00
  YS02001652YS02001649 CONDUIT    599.22     0  02:16      0.76    0.30    1.00
  YS02001655YS02001652 CONDUIT    601.09     0  02:16      1.30    0.29    1.00
  YS02001658YS02001655 CONDUIT    608.66     0  02:16      1.92    0.26    1.00
  YS02001661YS02001658 CONDUIT    696.49     0  02:14      2.36    0.27    0.85
  YS02001664YS02001661 CONDUIT    525.86     0  02:13      2.33    0.16    0.52
  YS02001745YS02001748 CONDUIT    545.53     0  02:16      2.23    0.21    0.62
  YS02001748YS02001751 CONDUIT    501.77     0  02:16      1.76    0.25    0.98
  YS02001751YS02001754 CONDUIT    399.00     0  02:15      1.46    0.19    1.00
  YS02001754YS02001757 CONDUIT    399.62     0  02:15      0.51    0.16    1.00
  YS02001757CaochengTiaoxuchi CONDUIT   3279.42     0  02:14      4.36    1.42    1.00
  YS02001759YS02001757 CONDUIT   1143.20     0  02:14      1.46    0.81    1.00
  YS02001762YS02001759 CONDUIT    677.56     0  02:14      0.86    0.78    1.00
  YS02001765YS02001762 CONDUIT    675.52     0  02:14      0.86    0.63    1.00
  YS02001767YS02001765 CONDUIT    673.24     0  02:14      0.86    0.85    1.00
  YS02001770YS02001767 CONDUIT    670.70     0  02:14      0.85    2.66    1.00
  YS02001774YS02001770 CONDUIT    319.46     0  02:12      0.41    0.20    1.00
  YS02001779YS02001774 CONDUIT    323.11     0  02:12      0.42    0.16    1.00
  YS02001783YS02001784 CONDUIT   1156.62     0  02:16      2.30    1.59    1.00
  YS02001784YS02001785 CONDUIT   1153.83     0  02:12      2.30    2.69    1.00
  YS02001786YS02001788 CONDUIT   1156.68     0  02:16      2.47    2.23    0.89
  YS02001788YS02001790 CONDUIT   1166.80     0  02:13      2.71    0.86    0.82
  YS02001790YS02001791 CONDUIT   1264.62     0  02:16      3.40    1.38    0.70
  YS02001791YS02001793 CONDUIT   1217.50     0  02:16      6.76    0.52    0.43
  YS02001793JiankangQianchi CONDUIT   1236.37     0  02:23      2.48    0.10    0.64
  YS02001882YS02001884 CONDUIT     65.68     0  02:10      0.10    0.08    1.00
  YS02001884YS02001887 CONDUIT     74.16     0  02:09      0.09    0.10    1.00
  YS02001887YS02001890 CONDUIT    510.90     0  02:13      0.65    0.87    1.00
  YS02001890YS02001895 CONDUIT    504.19     0  02:13      0.64    0.23    1.00
  YS02001895YS02001898 CONDUIT    504.08     0  02:13      0.64    0.87    1.00
  YS02001898YS02001901 CONDUIT    504.15     0  02:13      0.64    0.33    1.00
  YS02001901YS02001904 CONDUIT    504.15     0  02:13      0.64    0.78    1.00
  YS02001904YS02001907 CONDUIT    504.36     0  02:13      0.64    0.18    1.00
  YS02001907YS02006553 CONDUIT    793.32     0  02:24      0.88    0.93    1.00
  YS02001910YS02001907 CONDUIT   1002.29     0  02:13      1.28    0.57    1.00
  YS02001915YS02001910 CONDUIT   1002.38     0  02:13      1.28    0.50    1.00
  YS02001918YS02001915 CONDUIT    439.44     0  02:13      0.56    0.24    1.00
  YS02001920YS02001918 CONDUIT    439.38     0  02:13      0.65    0.43    1.00
  YS02001923YS02001920 CONDUIT    436.28     0  02:13      0.69    0.20    1.00
  YS02001926YS02001923 CONDUIT    432.27     0  02:12      0.96    0.62    1.00
  YS02001929YS02001926 CONDUIT    385.72     0  02:13      1.13    0.18    1.00
  YS02006553YS02006556 CONDUIT    793.76     0  02:24      1.01    0.68    1.00
  YS02006556YS02006558 CONDUIT    795.64     0  02:24      1.01    0.63    1.00
  YS02006558YS02006561 CONDUIT   1180.14     0  02:11      4.17    2.61    1.00
  YS02006561YS02001783 CONDUIT   1155.12     0  02:16      2.30    0.60    1.00
  YS02163301YS02001633 CONDUIT    930.84     0  02:11      1.19    0.88    1.00
  YS02163601YS02164001 CONDUIT   1406.88     0  02:11      1.79    1.25    1.00
  YS02164001YS02001641 CONDUIT   1406.75     0  02:11      1.79    1.92    1.00
  CC-R1                PUMP       683.00     0  01:45              1.00
  CC-R2                PUMP       683.00     0  00:15              1.00
  CC-S1                PUMP       200.00     0  00:05              1.00
  CC-S2                PUMP       200.00     0  00:05              1.00
  JK-R1                PUMP      1000.00     0  00:05              1.00
  JK-R2                PUMP      1000.00     0  00:05              1.00
  JK-S                 PUMP       300.00     0  00:15              1.00
  
  
  ***************************
  Flow Classification Summary
  ***************************
  
  -------------------------------------------------------------------------------------
                      Adjusted    ---------- Fraction of Time in Flow Class ---------- 
                       /Actual         Up    Down  Sub   Sup   Up    Down  Norm  Inlet 
  Conduit               Length    Dry  Dry   Dry   Crit  Crit  Crit  Crit  Ltd   Ctrl  
  -------------------------------------------------------------------------------------
  1                       1.00   0.00  0.00  0.00  0.00  1.00  0.00  0.00  0.34  0.00
  WS02003060WS02003069    1.00   0.00  0.00  0.00  0.96  0.04  0.00  0.00  0.80  0.00
  WS02003066WSF200        1.00   0.03  0.00  0.00  0.00  0.97  0.00  0.00  0.90  0.00
  WS02003067WS02003066    1.00   0.02  0.01  0.00  0.97  0.00  0.00  0.00  0.00  0.00
  WS02003069WS02003072    1.00   0.00  0.00  0.00  0.99  0.01  0.00  0.00  0.85  0.00
  WS02003072WS02003073    1.00   0.00  0.00  0.00  0.00  0.00  0.00  1.00  0.00  0.00
  WS02004401WS02004402    1.00   0.00  0.00  0.00  1.00  0.00  0.00  0.00  0.00  0.00
  WS02004402WS02004403    1.00   0.00  0.00  0.00  1.00  0.00  0.00  0.00  0.00  0.00
  WS02004403WS02004404    1.00   0.00  0.00  0.00  1.00  0.00  0.00  0.00  0.00  0.00
  WS02004404WS02004405    1.00   0.00  0.00  0.00  1.00  0.00  0.00  0.00  0.00  0.00
  WS02004405WS02004406    1.00   0.00  0.00  0.00  1.00  0.00  0.00  0.00  0.00  0.00
  WS02004406WS02004407    1.00   0.00  0.00  0.00  1.00  0.00  0.00  0.00  0.00  0.00
  WS02004407WS02004409    1.00   0.00  0.00  0.00  0.99  0.01  0.00  0.00  0.99  0.00
  WS02004409WS02004410    1.00   0.00  0.00  0.00  0.99  0.00  0.00  0.00  0.00  0.00
  WS02004410WS02004411    1.00   0.01  0.00  0.00  0.99  0.00  0.00  0.00  0.00  0.00
  WS02004411WS02004412    1.00   0.01  0.00  0.00  0.99  0.00  0.00  0.00  0.00  0.00
  WS02004412WS02004413    1.00   0.01  0.00  0.00  0.99  0.00  0.00  0.00  0.00  0.00
  WS02004413WS02003067    1.00   0.01  0.01  0.00  0.00  0.00  0.98  0.00  0.00  0.00
  WS02006109WS02006110    1.00   0.00  0.00  0.00  1.00  0.00  0.00  0.00  0.00  0.00
  WS02006110WS02006113    1.00   0.00  0.00  0.00  1.00  0.00  0.00  0.00  0.00  0.00
  WS02006111WS02006112    1.00   0.00  0.00  0.00  1.00  0.00  0.00  0.00  1.00  0.00
  WS02006112WS02006115    1.00   0.00  0.00  0.00  1.00  0.00  0.00  0.00  0.00  0.00
  WS02006113WS02006111    1.00   0.00  0.00  0.00  0.01  0.99  0.00  0.00  0.09  0.00
  WS02006115WS02006116    1.00   0.00  0.00  0.00  1.00  0.00  0.00  0.00  0.00  0.00
  WS02006116WS02004401    1.00   0.00  0.00  0.00  1.00  0.00  0.00  0.00  0.00  0.00
  WS02006228WS02006109    1.00   0.00  0.00  0.00  1.00  0.00  0.00  0.00  0.00  0.00
  WS02006229WS02006228    1.00   0.00  0.00  0.00  1.00  0.00  0.00  0.00  0.00  0.00
  WS02006230WS02006229    1.00   0.00  0.00  0.00  1.00  0.00  0.00  0.00  0.04  0.00
  WS02006231WS02006230    1.00   0.00  0.00  0.00  0.15  0.00  0.85  0.00  0.00  0.00
  WS02006232WS02006231    1.00   0.00  0.00  0.00  0.99  0.00  0.01  0.00  0.00  0.00
  WS02006234WS02006232    1.00   0.00  0.00  0.00  0.99  0.00  0.00  0.00  0.08  0.00
  WS02006235WS02006234    1.00   0.01  0.00  0.00  0.86  0.00  0.12  0.00  0.00  0.00
  WS02006238WS02006235    1.00   0.01  0.00  0.00  0.98  0.00  0.00  0.00  0.01  0.00
  WS02006239WS02006238    1.00   0.01  0.00  0.00  0.98  0.00  0.00  0.00  0.20  0.00
  WS02006240WS02006239    1.00   0.01  0.00  0.00  0.64  0.00  0.00  0.35  0.06  0.00
  WS02006242WS02006240    1.00   0.01  0.00  0.00  0.97  0.00  0.01  0.00  0.00  0.00
  WS02006243WS02006242    1.00   0.01  0.00  0.00  0.98  0.00  0.00  0.01  0.70  0.00
  WS02006245WS02006243    1.00   0.01  0.00  0.00  0.64  0.00  0.00  0.35  0.00  0.00
  WS02006247WS02006245    1.00   0.01  0.00  0.00  0.96  0.00  0.00  0.03  0.00  0.00
  WS02006248WS02006247    1.00   0.01  0.00  0.00  0.98  0.00  0.00  0.01  0.52  0.00
  WS02006249WS02006248    1.00   0.00  0.01  0.00  0.34  0.00  0.65  0.00  0.00  0.00
  WS02006251WS02006249    1.00   0.00  0.00  0.00  0.99  0.01  0.00  0.00  0.65  0.00
  WS02006252WS02006251    1.00   0.01  0.41  0.00  0.06  0.00  0.51  0.00  0.00  0.00
  WS02006256WS02006235    1.00   0.01  0.00  0.00  0.96  0.03  0.00  0.00  0.01  0.00
  WSF200WS02003060        1.00   0.00  0.03  0.00  0.54  0.43  0.00  0.00  0.76  0.00
  YS02001580YS02001583    1.00   0.26  0.57  0.00  0.16  0.00  0.00  0.00  0.67  0.00
  YS02001583YS02001586    1.00   0.43  0.36  0.00  0.21  0.00  0.00  0.00  0.67  0.00
  YS02001586YS02001590    1.00   0.13  0.00  0.00  0.41  0.05  0.00  0.42  0.38  0.00
  YS02001590YS02001593    1.00   0.13  0.01  0.00  0.08  0.00  0.78  0.00  0.00  0.00
  YS02001593YS02001596    1.00   0.14  0.00  0.00  0.10  0.01  0.00  0.76  0.02  0.00
  YS02001596YS02001600    1.00   0.14  0.00  0.00  0.17  0.01  0.00  0.68  0.05  0.00
  YS02001600YS02001601    1.00   0.13  0.01  0.00  0.86  0.00  0.00  0.00  0.63  0.00
  YS02001601YS02001602    1.00   0.13  0.01  0.00  0.86  0.00  0.00  0.00  0.00  0.00
  YS02001602YS02001605    1.00   0.14  0.00  0.00  0.86  0.00  0.00  0.00  0.00  0.00
  YS02001605YS02001607    1.00   0.14  0.00  0.00  0.86  0.00  0.00  0.00  0.00  0.00
  YS02001607YS02001610    1.00   0.13  0.01  0.00  0.86  0.00  0.00  0.00  0.02  0.00
  YS02001610YS02001613    1.00   0.13  0.00  0.00  0.87  0.00  0.00  0.00  0.01  0.00
  YS02001613YS02001616    1.00   0.13  0.00  0.00  0.87  0.00  0.00  0.00  0.01  0.00
  YS02001616YS02001619    1.00   0.13  0.00  0.00  0.87  0.00  0.00  0.00  0.00  0.00
  YS02001619YS02001622    1.00   0.13  0.00  0.00  0.87  0.00  0.00  0.00  0.29  0.00
  YS02001622YS02001625    1.00   0.13  0.00  0.00  0.87  0.00  0.00  0.00  0.06  0.00
  YS02001625YS02001629    1.00   0.13  0.06  0.00  0.12  0.00  0.69  0.00  0.00  0.00
  YS02001629YS02163301    1.00   0.16  0.01  0.00  0.83  0.00  0.00  0.00  0.00  0.00
  YS02001633YS02163601    1.00   0.00  0.01  0.00  0.99  0.00  0.00  0.00  0.15  0.00
  YS02001641YS02001644    1.00   0.00  0.01  0.00  0.99  0.00  0.00  0.00  0.00  0.00
  YS02001644YS02001647    1.00   0.00  0.18  0.00  0.82  0.00  0.00  0.00  0.00  0.00
  YS02001647YS02001649    1.00   0.00  0.18  0.00  0.48  0.34  0.00  0.00  0.58  0.00
  YS02001649YS02001757    1.00   0.00  0.00  0.00  0.63  0.37  0.00  0.00  0.52  0.00
  YS02001652YS02001649    1.00   0.00  0.00  0.00  0.96  0.04  0.00  0.00  0.78  0.00
  YS02001655YS02001652    1.00   0.00  0.00  0.00  0.14  0.02  0.00  0.84  0.07  0.00
  YS02001658YS02001655    1.00   0.00  0.14  0.00  0.60  0.25  0.00  0.00  0.75  0.00
  YS02001661YS02001658    1.00   0.14  0.00  0.00  0.45  0.41  0.00  0.00  0.75  0.00
  YS02001664YS02001661    1.00   0.13  0.00  0.00  0.76  0.12  0.00  0.00  0.86  0.00
  YS02001745YS02001748    1.00   0.00  0.00  0.00  0.03  0.01  0.00  0.96  0.04  0.00
  YS02001748YS02001751    1.00   0.00  0.00  0.00  0.77  0.23  0.00  0.00  0.80  0.00
  YS02001751YS02001754    1.00   0.00  0.00  0.00  0.09  0.01  0.00  0.90  0.03  0.00
  YS02001754YS02001757    1.00   0.00  0.00  0.00  1.00  0.00  0.00  0.00  0.89  0.00
  YS02001757CaochengTiaoxuchi    1.00   0.00  0.00  0.00  0.95  0.05  0.00  0.00  0.86  0.00
  YS02001759YS02001757    1.00   0.00  0.00  0.00  1.00  0.00  0.00  0.00  0.67  0.00
  YS02001762YS02001759    1.00   0.00  0.00  0.00  1.00  0.00  0.00  0.00  0.05  0.00
  YS02001765YS02001762    1.00   0.00  0.00  0.00  1.00  0.00  0.00  0.00  0.77  0.00
  YS02001767YS02001765    1.00   0.00  0.00  0.00  1.00  0.00  0.00  0.00  0.00  0.00
  YS02001770YS02001767    1.00   0.00  0.00  0.00  1.00  0.00  0.00  0.00  0.00  0.00
  YS02001774YS02001770    1.00   0.00  0.13  0.00  0.69  0.00  0.17  0.00  0.04  0.00
  YS02001779YS02001774    1.00   0.00  0.00  0.00  1.00  0.00  0.00  0.00  0.82  0.00
  YS02001783YS02001784    1.00   0.00  0.19  0.00  0.81  0.00  0.00  0.00  0.56  0.00
  YS02001784YS02001785    1.00   0.00  0.00  0.00  1.00  0.00  0.00  0.00  0.18  0.00
  YS02001786YS02001788    1.00   0.00  0.00  0.00  0.79  0.21  0.00  0.00  0.00  0.00
  YS02001788YS02001790    1.00   0.00  0.00  0.00  0.21  0.79  0.00  0.00  0.82  0.00
  YS02001790YS02001791    1.00   0.00  0.00  0.00  0.01  0.99  0.00  0.00  0.16  0.00
  YS02001791YS02001793    1.00   0.00  0.00  0.00  0.00  1.00  0.00  0.00  0.00  0.00
  YS02001793JiankangQianchi    1.00   0.00  0.00  0.00  0.99  0.01  0.00  0.00  0.98  0.00
  YS02001882YS02001884    1.00   0.16  0.01  0.00  0.83  0.00  0.00  0.00  0.00  0.00
  YS02001884YS02001887    1.00   0.06  0.05  0.00  0.89  0.00  0.00  0.00  0.00  0.00
  YS02001887YS02001890    1.00   0.00  0.00  0.00  0.97  0.00  0.03  0.00  0.00  0.00
  YS02001890YS02001895    1.00   0.00  0.17  0.00  0.82  0.00  0.00  0.00  0.00  0.00
  YS02001895YS02001898    1.00   0.18  0.00  0.00  0.80  0.00  0.02  0.00  0.00  0.00
  YS02001898YS02001901    1.00   0.18  0.00  0.00  0.82  0.00  0.00  0.00  0.01  0.00
  YS02001901YS02001904    1.00   0.17  0.00  0.00  0.83  0.00  0.00  0.00  0.00  0.00
  YS02001904YS02001907    1.00   0.00  0.17  0.00  0.83  0.00  0.00  0.00  0.00  0.00
  YS02001907YS02006553    1.00   0.00  0.02  0.00  0.98  0.00  0.00  0.00  0.00  0.00
  YS02001910YS02001907    1.00   0.00  0.00  0.00  0.97  0.00  0.00  0.03  0.12  0.00
  YS02001915YS02001910    1.00   0.00  0.00  0.00  0.96  0.04  0.00  0.00  0.17  0.00
  YS02001918YS02001915    1.00   0.00  0.00  0.00  0.98  0.02  0.00  0.00  0.78  0.00
  YS02001920YS02001918    1.00   0.00  0.00  0.00  1.00  0.00  0.00  0.00  0.01  0.00
  YS02001923YS02001920    1.00   0.00  0.00  0.00  1.00  0.00  0.00  0.00  0.94  0.00
  YS02001926YS02001923    1.00   0.00  0.07  0.00  0.04  0.00  0.89  0.00  0.00  0.00
  YS02001929YS02001926    1.00   0.00  0.13  0.00  0.87  0.00  0.00  0.00  0.84  0.00
  YS02006553YS02006556    1.00   0.01  0.00  0.00  0.99  0.00  0.00  0.00  0.03  0.00
  YS02006556YS02006558    1.00   0.00  0.00  0.00  1.00  0.00  0.00  0.00  0.00  0.00
  YS02006558YS02006561    1.00   0.19  0.00  0.00  0.04  0.77  0.00  0.00  0.19  0.00
  YS02006561YS02001783    1.00   0.19  0.00  0.00  0.07  0.74  0.00  0.00  0.70  0.00
  YS02163301YS02001633    1.00   0.00  0.16  0.00  0.84  0.00  0.00  0.00  0.00  0.00
  YS02163601YS02164001    1.00   0.00  0.08  0.00  0.92  0.00  0.00  0.00  0.00  0.00
  YS02164001YS02001641    1.00   0.01  0.07  0.00  0.92  0.00  0.00  0.00  0.06  0.00
  
  
  *************************
  Conduit Surcharge Summary
  *************************
  
  ----------------------------------------------------------------------------
                                                           Hours        Hours 
                         --------- Hours Full --------   Above Full   Capacity
  Conduit                Both Ends  Upstream  Dnstream   Normal Flow   Limited
  ----------------------------------------------------------------------------
  WS02003072WS02003073        0.01      0.01      0.01      0.51         0.01
  WS02004401WS02004402        0.01      0.01      0.01      0.01         0.01
  WS02004402WS02004403        0.01      0.01      0.01      0.01         0.01
  WS02004404WS02004405        0.01      0.01      0.01      2.17         0.01
  WS02004405WS02004406        0.01      0.01      0.01      0.43         0.01
  WS02006109WS02006110        0.46      0.47      0.97      0.48         0.01
  WS02006110WS02006113        0.01      0.01      0.96      0.01         0.01
  WS02006111WS02006112        0.01      0.01      1.23      0.01         0.01
  WS02006112WS02006115        0.01      0.01      0.45      0.01         0.01
  WS02006113WS02006111        0.01      0.01      0.01      0.01         0.01
  WS02006115WS02006116        0.01      0.01      0.01      0.01         0.01
  WS02006116WS02004401        0.01      0.01      0.01      0.01         0.01
  WS02006228WS02006109        0.93      0.98      0.93      1.55         0.93
  WS02006229WS02006228        0.93      0.93      0.93      1.25         0.92
  WS02006230WS02006229        1.09      1.19      1.09      2.47         1.09
  WS02006231WS02006230        0.46      0.46      0.48      2.13         0.01
  WS02006232WS02006231        0.48      0.48      0.98      0.49         0.01
  WS02006234WS02006232        0.92      0.92      0.98      0.48         0.49
  WS02006235WS02006234        0.54      0.54      0.93      1.99         0.01
  WS02006238WS02006235        0.94      0.94      0.99      0.01         0.01
  WS02006239WS02006238        0.94      0.95      0.95      1.08         0.90
  WS02006240WS02006239        0.92      0.93      0.93      1.08         0.86
  WS02006242WS02006240        0.93      0.93      1.00      1.25         0.01
  WS02006243WS02006242        0.92      0.92      0.97      0.01         0.01
  WS02006245WS02006243        0.91      0.91      0.92      0.63         0.49
  WS02006247WS02006245        0.91      0.92      0.91      1.92         0.91
  WS02006248WS02006247        0.91      0.91      0.91      0.01         0.01
  WS02006249WS02006248        0.90      0.91      0.90      1.89         0.01
  WS02006251WS02006249        0.90      0.91      0.90      1.18         0.89
  WS02006252WS02006251        1.21      1.21      1.26      1.22         0.01
  WS02006256WS02006235        2.05      2.07      5.95      0.79         0.01
  YS02001580YS02001583        0.36      0.36      0.41      0.01         0.01
  YS02001583YS02001586        0.37      0.37      0.49      0.01         0.01
  YS02001586YS02001590        0.49      0.49      0.55      0.01         0.01
  YS02001590YS02001593        0.56      0.56      0.57      0.58         0.01
  YS02001593YS02001596        0.56      0.56      0.66      0.01         0.01
  YS02001596YS02001600        0.70      0.70      0.80      0.01         0.01
  YS02001600YS02001601        0.86      0.86      1.17      0.01         0.01
  YS02001601YS02001602        1.05      1.05      1.21      0.82         0.01
  YS02001602YS02001605        0.99      0.99      1.05      2.06         0.01
  YS02001605YS02001607        0.94      0.99      0.94      1.13         0.94
  YS02001607YS02001610        0.50      0.50      0.53      0.01         0.01
  YS02001610YS02001613        0.50      0.50      0.53      0.01         0.01
  YS02001613YS02001616        0.46      0.46      0.50      0.01         0.01
  YS02001616YS02001619        0.45      0.45      0.46      0.01         0.01
  YS02001619YS02001622        0.44      0.45      0.44      0.59         0.43
  YS02001622YS02001625        0.44      0.44      0.61      0.01         0.01
  YS02001625YS02001629        0.39      0.39      0.61      0.01         0.01
  YS02001629YS02163301        0.59      0.59      0.60      0.27         0.25
  YS02001633YS02163601        0.62      0.62      0.65      0.43         0.42
  YS02001641YS02001644        0.49      0.53      0.49      1.25         0.49
  YS02001644YS02001647        0.29      0.29      0.49      0.04         0.01
  YS02001647YS02001649        0.29      0.29      0.36      0.01         0.01
  YS02001649YS02001757        0.35      0.36      0.37      0.31         0.25
  YS02001652YS02001649        0.24      0.24      0.36      0.01         0.01
  YS02001655YS02001652        0.10      0.10      0.22      0.01         0.01
  YS02001658YS02001655        0.01      0.01      0.10      0.01         0.01
  YS02001661YS02001658        0.01      0.01      0.01      0.01         0.01
  YS02001748YS02001751        0.01      0.01      0.03      0.01         0.01
  YS02001751YS02001754        0.03      0.03      0.11      0.01         0.01
  YS02001754YS02001757        0.15      0.15      0.37      0.01         0.01
  YS02001757CaochengTiaoxuchi        0.26      0.37      0.91      0.28         0.13
  YS02001759YS02001757        0.31      0.31      0.37      0.01         0.01
  YS02001762YS02001759        0.28      0.28      0.31      0.01         0.01
  YS02001765YS02001762        0.26      0.26      0.28      0.01         0.01
  YS02001767YS02001765        0.24      0.24      0.26      0.01         0.01
  YS02001770YS02001767        0.24      0.24      0.24      0.40         0.20
  YS02001774YS02001770        0.22      0.22      0.28      0.01         0.01
  YS02001779YS02001774        0.13      0.13      0.28      0.01         0.01
  YS02001783YS02001784        0.35      0.37      0.35      0.51         0.35
  YS02001784YS02001785        0.25      0.35      0.25      0.71         0.25
  YS02001786YS02001788        0.01      0.25      0.01      0.60         0.01
  YS02001790YS02001791        0.01      0.01      0.01      0.34         0.01
  YS02001793JiankangQianchi        0.01      0.01      6.98      0.01         0.01
  YS02001882YS02001884        0.32      0.32      0.33      0.01         0.01
  YS02001884YS02001887        0.35      0.35      0.36      0.01         0.01
  YS02001887YS02001890        0.37      0.37      0.38      0.01         0.01
  YS02001890YS02001895        0.31      0.31      0.40      0.01         0.01
  YS02001895YS02001898        0.30      0.30      0.31      0.01         0.01
  YS02001898YS02001901        0.31      0.31      0.35      0.01         0.01
  YS02001901YS02001904        0.34      0.34      0.35      0.01         0.01
  YS02001904YS02001907        0.34      0.34      0.59      0.01         0.01
  YS02001907YS02006553        0.72      0.72      0.78      0.01         0.01
  YS02001910YS02001907        0.40      0.40      0.57      0.01         0.01
  YS02001915YS02001910        0.32      0.32      0.40      0.01         0.01
  YS02001918YS02001915        0.24      0.24      0.32      0.01         0.01
  YS02001920YS02001918        0.24      0.24      0.25      0.01         0.01
  YS02001923YS02001920        0.20      0.20      0.25      0.01         0.01
  YS02001926YS02001923        0.01      0.01      0.01      0.01         0.01
  YS02001929YS02001926        0.01      0.01      0.01      0.01         0.01
  YS02006553YS02006556        0.48      0.48      0.58      0.01         0.01
  YS02006556YS02006558        0.53      0.53      0.60      0.01         0.01
  YS02006558YS02006561        0.27      0.47      0.27      0.66         0.27
  YS02006561YS02001783        0.21      0.21      0.37      0.01         0.01
  YS02163301YS02001633        0.60      0.60      0.64      0.01         0.01
  YS02163601YS02164001        0.54      0.54      0.65      0.17         0.01
  YS02164001YS02001641        0.53      0.54      0.53      0.69         0.51
  
  
  ***************
  Pumping Summary
  ***************
  
  ---------------------------------------------------------------------------------------------------------
                                                  Min       Avg       Max     Total     Power    % Time Off
                        Percent   Number of      Flow      Flow      Flow    Volume     Usage    Pump Curve
  Pump                 Utilized   Start-Ups       LPS       LPS       LPS  10^6 ltr     Kw-hr    Low   High
  ---------------------------------------------------------------------------------------------------------
  CC-R1                   11.08           7      0.00    683.00    683.00     2.180     38.27    0.0   48.2
  CC-R2                   24.67          43      0.00    683.00    683.00     4.852     84.66    0.0   55.2
  CC-S1                   23.56          35      0.00    200.00    200.00     1.357      8.59    0.0    0.0
  CC-S2                   17.25           5      0.00    200.00    200.00     0.993      6.24    0.0    0.0
  JK-R1                    4.89          22      0.00   1000.00   1000.00     1.408     11.60    0.0    0.0
  JK-R2                    4.11          22      0.00   1000.00   1000.00     1.184     11.57    0.0    0.0
  JK-S                     9.10          39      0.00    300.00    300.00     0.787     13.64    0.0    0.0
  

  Analysis begun on:  Fri Aug  4 11:25:59 2023
  Analysis ended on:  Fri Aug  4 11:26:07 2023
  Total elapsed time: 00:00:08