
  OWA STORM WATER MANAGEMENT MODEL - VERSION v5.1.14 (OWA 2022-07-31)
  --------------------------------------------------------------

  WARNING 04: minimum elevation drop used for Conduit WS02004404WS02004405
  WARNING 03: negative offset ignored for Link YS02001904YS02001907
  
  *********************************************************
  NOTE: The summary statistics displayed in this report are
  based on results found at every computational time step,  
  not just on results from each reporting time step.
  *********************************************************
  
  ****************
  Analysis Options
  ****************
  Flow Units ............... LPS
  Process Models:
    Rainfall/Runoff ........ YES
    RDII ................... NO
    Snowmelt ............... NO
    Groundwater ............ NO
    Flow Routing ........... YES
    Ponding Allowed ........ NO
    Water Quality .......... NO
  Infiltration Method ...... HORTON
  Flow Routing Method ...... DYNWAVE
  Surcharge Method ......... EXTRAN
  Starting Date ............ 08/28/2015 08:00:00
  Ending Date .............. 08/28/2015 16:00:00
  Antecedent Dry Days ...... 8.0
  Report Time Step ......... 00:01:00
  Wet Time Step ............ 00:01:00
  Dry Time Step ............ 00:01:00
  Routing Time Step ........ 30.00 sec
  Variable Time Step ....... YES
  Maximum Trials ........... 8
  Number of Threads ........ 1
  Head Tolerance ........... 0.001500 m
  
  
  **************************        Volume         Depth
  Runoff Quantity Continuity     hectare-m            mm
  **************************     ---------       -------
  Total Precipitation ......         9.020       271.931
  Evaporation Loss .........         0.000         0.000
  Infiltration Loss ........         0.113         3.399
  Surface Runoff ...........         8.877       267.616
  Final Storage ............         0.033         1.000
  Continuity Error (%) .....        -0.031
  
  
  **************************        Volume        Volume
  Flow Routing Continuity        hectare-m      10^6 ltr
  **************************     ---------     ---------
  Dry Weather Inflow .......         0.000         0.000
  Wet Weather Inflow .......         8.876        88.762
  Groundwater Inflow .......         0.000         0.000
  RDII Inflow ..............         0.000         0.000
  External Inflow ..........         0.083         0.834
  External Outflow .........         2.577        25.772
  Flooding Loss ............         6.481        64.812
  Evaporation Loss .........         0.000         0.000
  Exfiltration Loss ........         0.000         0.000
  Initial Stored Volume ....         0.243         2.431
  Final Stored Volume ......         0.179         1.794
  Continuity Error (%) .....        -0.381
  
  
  *************************
  Highest Continuity Errors
  *************************
  Node YS02001583 (-3.61%)
  Node YS02001884 (3.20%)
  Node WS02006256 (-1.05%)
  
  
  ***************************
  Time-Step Critical Elements
  ***************************
  Link WS02006252WS02006251 (28.16%)
  Link WS02004404WS02004405 (14.17%)
  Link YS02001791YS02001793 (13.45%)
  Link WS02006238WS02006235 (13.10%)
  Link WS02006235WS02006234 (8.92%)
  
  
  ********************************
  Highest Flow Instability Indexes
  ********************************
  Link WS02006113WS02006111 (43)
  Link WS02006238WS02006235 (30)
  Link YS02001607YS02001610 (27)
  Link YS02001602YS02001605 (27)
  Link WS02006252WS02006251 (26)
  
  
  *************************
  Routing Time Step Summary
  *************************
  Minimum Time Step           :     0.01 sec
  Average Time Step           :     2.36 sec
  Maximum Time Step           :    30.00 sec
  Percent in Steady State     :    -0.00
  Average Iterations per Step :     3.97
  Percent Not Converging      :    21.92
  
  
  ***************************
  Subcatchment Runoff Summary
  ***************************
  
  ------------------------------------------------------------------------------------------------------------------------------
                            Total      Total      Total      Total     Imperv       Perv      Total       Total     Peak  Runoff
                           Precip      Runon       Evap      Infil     Runoff     Runoff     Runoff      Runoff   Runoff   Coeff
  Subcatchment                 mm         mm         mm         mm         mm         mm         mm    10^6 ltr      LPS
  ------------------------------------------------------------------------------------------------------------------------------
  sub60                    316.61       0.00       0.00       1.97     277.51      36.04     313.55        4.12  3066.39   0.990
  sub61                    316.61       0.00       0.00       2.87     261.75      50.97     312.72        5.74  4276.60   0.988
  sub62                    316.61       0.00       0.00       1.31     290.08      24.03     314.11        8.61  6156.70   0.992
  sub63                    316.61       0.00       0.00       5.39     223.90      86.45     310.35        7.04  5064.97   0.980
  sub64                    316.61       0.00       0.00       2.71     267.99      44.79     312.78        7.51  5221.36   0.988
  sub65                    316.61       0.00       0.00       2.35     274.27      38.82     313.09        8.62  5927.19   0.989
  sub66                    316.61       0.00       0.00       6.86     223.76      84.97     308.73       14.40  8981.20   0.975
  sub67                    144.31       0.00       0.00       1.22     131.57      10.33     141.89        2.64  1772.01   0.983
  sub68                    144.31       0.00       0.00       2.30     122.96      17.91     140.86        3.88  2349.11   0.976
  sub69                    316.61       0.00       0.00       2.22     269.08      45.28     314.36       11.64  7924.18   0.993
  sub70                    316.61       0.00       0.00       7.68     208.83      99.98     308.81        8.92  5219.07   0.975
  sub71                    144.31       0.00       0.00       1.31     131.47      10.24     141.71        3.71  2016.36   0.982
  sub72                    144.31       0.00       0.00       1.17     132.83       8.94     141.77        1.95   975.62   0.982
  
  
  ******************
  Node Depth Summary
  ******************
  
  ---------------------------------------------------------------------------------
                                 Average  Maximum  Maximum  Time of Max    Reported
                                   Depth    Depth      HGL   Occurrence   Max Depth
  Node                 Type       Meters   Meters   Meters  days hr:min      Meters
  ---------------------------------------------------------------------------------
  WS02003060           JUNCTION     0.24     0.38     5.31     0  02:58        0.38
  WS02003066           JUNCTION     0.20     0.30     5.85     0  02:57        0.30
  WS02003067           JUNCTION     0.52     0.70     6.02     0  02:57        0.70
  WS02003069           JUNCTION     0.27     0.43     5.01     0  02:08        0.43
  WS02003072           JUNCTION     0.33     0.50     4.87     0  02:08        0.50
  WS02003073           JUNCTION     0.19     0.30     4.36     0  02:09        0.30
  WS02004401           JUNCTION     0.61     0.85     6.85     0  02:53        0.85
  WS02004402           JUNCTION     0.65     0.88     6.84     0  02:53        0.87
  WS02004403           JUNCTION     0.67     0.89     6.82     0  02:53        0.89
  WS02004404           JUNCTION     0.75     0.96     6.81     0  02:54        0.96
  WS02004405           JUNCTION     0.74     0.96     6.81     0  02:54        0.96
  WS02004406           JUNCTION     0.75     0.96     6.79     0  02:54        0.96
  WS02004407           JUNCTION     0.18     0.30     6.61     0  02:54        0.30
  WS02004409           JUNCTION     0.41     0.67     6.44     0  02:06        0.67
  WS02004410           JUNCTION     0.43     0.68     6.40     0  02:06        0.68
  WS02004411           JUNCTION     0.46     0.69     6.37     0  02:56        0.69
  WS02004412           JUNCTION     0.48     0.70     6.34     0  02:57        0.70
  WS02004413           JUNCTION     0.64     0.86     6.33     0  02:57        0.86
  WS02006109           JUNCTION     0.67     1.28     7.90     0  01:52        1.28
  WS02006110           JUNCTION     0.67     1.45     8.04     0  00:00        1.27
  WS02006111           JUNCTION     0.18     1.67     8.37     0  00:00        0.56
  WS02006112           JUNCTION     0.77     2.68     8.56     0  00:00        1.29
  WS02006113           JUNCTION     0.28     1.50     8.40     0  00:00        0.45
  WS02006115           JUNCTION     0.50     1.69     7.83     0  00:00        0.86
  WS02006116           JUNCTION     0.58     1.11     7.15     0  00:00        0.83
  WS02006228           JUNCTION     0.67     1.64     8.29     0  00:00        1.20
  WS02006229           JUNCTION     0.64     1.31     8.00     0  00:00        1.14
  WS02006230           JUNCTION     0.65     1.33     8.07     0  01:51        1.18
  WS02006231           JUNCTION     0.45     1.04     8.17     0  01:51        0.93
  WS02006232           JUNCTION     0.59     1.47     8.50     0  04:10        1.13
  WS02006234           JUNCTION     0.52     1.73     8.89     0  04:10        1.21
  WS02006235           JUNCTION     0.57     1.75     8.91     0  04:10        1.25
  WS02006238           JUNCTION     0.60     1.78     8.92     0  04:10        1.37
  WS02006239           JUNCTION     0.57     1.71     8.92     0  04:10        1.48
  WS02006240           JUNCTION     0.54     1.61     8.90     0  04:10        1.30
  WS02006242           JUNCTION     0.62     1.55     8.82     0  02:40        1.37
  WS02006243           JUNCTION     0.54     1.40     8.82     0  02:40        1.25
  WS02006245           JUNCTION     0.54     1.32     8.80     0  02:40        1.21
  WS02006247           JUNCTION     0.56     1.26     8.76     0  02:40        1.19
  WS02006248           JUNCTION     0.52     1.10     8.69     0  01:36        1.10
  WS02006249           JUNCTION     0.56     1.09     8.69     0  01:28        1.09
  WS02006251           JUNCTION     0.56     1.39     9.06     0  01:36        1.14
  WS02006252           JUNCTION     0.38     1.50     9.74     0  01:25        0.77
  WS02006256           JUNCTION     1.08     2.35     9.28     0  00:25        2.35
  WSF200               JUNCTION     0.17     0.29     5.52     0  02:57        0.29
  YS02001580           JUNCTION     0.26     1.05     9.59     0  01:22        0.78
  YS02001583           JUNCTION     0.30     1.14     9.64     0  01:22        0.91
  YS02001586           JUNCTION     0.45     1.13     9.30     0  01:22        1.13
  YS02001590           JUNCTION     0.60     1.40     9.26     0  01:22        1.39
  YS02001593           JUNCTION     0.52     1.34     9.20     0  01:22        1.30
  YS02001596           JUNCTION     0.69     1.69     9.11     0  01:22        1.68
  YS02001600           JUNCTION     0.81     1.87     9.00     0  01:22        1.87
  YS02001601           JUNCTION     1.00     2.06     8.90     0  01:21        2.06
  YS02001602           JUNCTION     0.88     1.87     8.77     0  01:22        1.87
  YS02001605           JUNCTION     0.82     1.78     8.68     0  01:35        1.78
  YS02001607           JUNCTION     0.77     1.68     8.53     0  02:29        1.68
  YS02001610           JUNCTION     0.81     1.68     8.48     0  01:32        1.68
  YS02001613           JUNCTION     0.77     1.70     8.54     0  02:29        1.70
  YS02001616           JUNCTION     0.71     1.61     8.52     0  01:35        1.61
  YS02001619           JUNCTION     0.69     1.61     8.54     0  01:35        1.61
  YS02001622           JUNCTION     0.67     1.62     8.52     0  02:29        1.62
  YS02001625           JUNCTION     0.91     1.78     8.38     0  01:32        1.78
  YS02001629           JUNCTION     0.84     1.85     8.40     0  01:41        1.85
  YS02001633           JUNCTION     0.93     2.08     8.53     0  02:22        2.08
  YS02001641           JUNCTION     0.88     2.10     8.54     0  02:29        2.10
  YS02001644           JUNCTION     0.87     1.92     8.35     0  01:42        1.92
  YS02001647           JUNCTION     0.66     1.83     8.44     0  02:05        1.83
  YS02001649           JUNCTION     0.76     2.05     8.44     0  02:05        2.05
  YS02001652           JUNCTION     0.64     2.16     8.76     0  02:29        2.16
  YS02001655           JUNCTION     0.54     2.20     9.05     0  02:28        2.20
  YS02001658           JUNCTION     0.45     2.30     9.44     0  02:29        2.30
  YS02001661           JUNCTION     0.43     2.46     9.86     0  02:29        2.46
  YS02001664           JUNCTION     0.26     2.31    10.23     0  02:29        2.31
  YS02001745           JUNCTION     0.28     2.35     9.87     0  02:29        2.35
  YS02001748           JUNCTION     0.42     2.27     9.35     0  02:29        2.27
  YS02001751           JUNCTION     0.48     2.20     9.08     0  02:29        2.20
  YS02001754           JUNCTION     0.59     2.20     8.81     0  02:39        2.20
  YS02001757           JUNCTION     0.79     2.21     8.47     0  02:28        2.21
  YS02001759           JUNCTION     0.73     2.21     8.57     0  02:28        2.21
  YS02001762           JUNCTION     0.71     2.15     8.55     0  02:28        2.15
  YS02001765           JUNCTION     0.69     2.10     8.55     0  02:29        2.10
  YS02001767           JUNCTION     0.67     2.02     8.51     0  02:40        2.02
  YS02001770           JUNCTION     0.68     1.95     8.44     0  02:11        1.95
  YS02001774           JUNCTION     0.75     2.03     8.46     0  02:39        2.00
  YS02001779           JUNCTION     0.55     1.68     8.37     0  01:50        1.68
  YS02001783           JUNCTION     0.38     1.72     7.86     0  01:22        1.30
  YS02001784           JUNCTION     0.37     1.56     7.63     0  01:22        1.17
  YS02001786           JUNCTION     0.30     1.63     7.66     0  01:22        0.90
  YS02001788           JUNCTION     0.22     0.64     6.61     0  01:22        0.63
  YS02001790           JUNCTION     0.25     0.74     6.38     0  01:30        0.72
  YS02001791           JUNCTION     0.15     0.45     5.92     0  01:30        0.44
  YS02001793           JUNCTION     0.08     0.30     5.13     0  01:24        0.29
  YS02001882           JUNCTION     0.50     1.83     8.55     0  01:21        1.80
  YS02001884           JUNCTION     0.59     1.93     8.55     0  01:21        1.91
  YS02001887           JUNCTION     0.66     2.00     8.54     0  01:25        2.00
  YS02001890           JUNCTION     0.68     1.81     8.32     0  01:21        1.81
  YS02001895           JUNCTION     0.46     1.75     8.50     0  01:21        1.59
  YS02001898           JUNCTION     0.46     1.77     8.51     0  01:21        1.56
  YS02001901           JUNCTION     0.57     1.87     8.48     0  01:21        1.68
  YS02001904           JUNCTION     0.55     1.85     8.48     0  01:21        1.64
  YS02001907           JUNCTION     0.86     1.96     8.25     0  01:21        1.96
  YS02001910           JUNCTION     0.69     2.03     8.54     0  01:22        2.02
  YS02001915           JUNCTION     0.52     2.00     8.72     0  01:22        2.00
  YS02001918           JUNCTION     0.35     1.81     8.88     0  01:22        1.79
  YS02001920           JUNCTION     0.42     2.14     9.15     0  01:22        1.93
  YS02001923           JUNCTION     0.30     2.03     9.29     0  01:22        1.76
  YS02001926           JUNCTION     0.31     1.90     9.35     0  01:22        1.68
  YS02001929           JUNCTION     0.21     1.78     9.47     0  01:23        1.58
  YS02006553           JUNCTION     0.86     2.08     8.37     0  01:25        2.08
  YS02006556           JUNCTION     0.83     2.23     8.54     0  01:25        2.23
  YS02006558           JUNCTION     0.87     2.39     8.65     0  01:25        2.39
  YS02006561           JUNCTION     0.25     1.32     7.98     0  01:22        0.99
  YS02163301           JUNCTION     0.87     2.03     8.55     0  02:29        2.03
  YS02163601           JUNCTION     0.95     2.08     8.48     0  01:35        2.08
  YS02164001           JUNCTION     0.88     2.10     8.56     0  01:35        2.10
  CC-1                 OUTFALL      0.00     0.00     0.00     0  00:00        0.00
  CC-2                 OUTFALL      0.00     0.00     0.00     0  00:00        0.00
  JK-1                 OUTFALL      0.00     0.00     0.00     0  00:00        0.00
  JK-2                 OUTFALL      0.00     0.00     0.00     0  00:00        0.00
  WSC                  OUTFALL      0.19     0.30     0.97     0  02:09        0.30
  CC-storage           STORAGE      1.08     2.30     7.80     0  02:41        2.30
  JK-storage           STORAGE      1.69     4.23     5.03     0  02:00        4.21
  
  
  *******************
  Node Inflow Summary
  *******************
  
  -------------------------------------------------------------------------------------------------
                                  Maximum  Maximum                  Lateral       Total        Flow
                                  Lateral    Total  Time of Max      Inflow      Inflow     Balance
                                   Inflow   Inflow   Occurrence      Volume      Volume       Error
  Node                 Type           LPS      LPS  days hr:min    10^6 ltr    10^6 ltr     Percent
  -------------------------------------------------------------------------------------------------
  WS02003060           JUNCTION     16.53   551.79     0  02:58       0.476        6.19       0.035
  WS02003066           JUNCTION      0.00   535.10     0  02:57           0        5.72       0.024
  WS02003067           JUNCTION      0.00   535.09     0  02:57           0        5.72       0.071
  WS02003069           JUNCTION      0.32   551.89     0  02:58     0.00922         6.2       0.059
  WS02003072           JUNCTION      0.00   551.79     0  02:08           0         6.2       0.106
  WS02003073           JUNCTION      1.82   553.58     0  02:09      0.0524        6.24       0.083
  WS02004401           JUNCTION      0.00  1786.04     0  00:00           0        5.83       0.185
  WS02004402           JUNCTION      0.00  1248.69     0  00:01           0        5.82       0.186
  WS02004403           JUNCTION      0.00   929.44     0  00:01           0        5.81       0.183
  WS02004404           JUNCTION      0.00   877.02     0  00:01           0         5.8       0.155
  WS02004405           JUNCTION      0.00   827.31     0  00:01           0        5.79       0.213
  WS02004406           JUNCTION      0.00   768.45     0  00:02           0        5.78       0.368
  WS02004407           JUNCTION      0.00   536.03     0  02:54           0        5.76       0.016
  WS02004409           JUNCTION      0.00   535.77     0  02:54           0        5.76       0.043
  WS02004410           JUNCTION      0.00   535.35     0  02:56           0        5.75       0.073
  WS02004411           JUNCTION      0.00   535.25     0  02:56           0        5.75       0.094
  WS02004412           JUNCTION      0.00   535.19     0  02:57           0        5.74       0.126
  WS02004413           JUNCTION      0.00   535.27     0  02:57           0        5.74       0.232
  WS02006109           JUNCTION      0.00  1446.81     0  00:00           0        5.73      -0.144
  WS02006110           JUNCTION      0.00   556.80     0  03:21           0         5.7      -0.957
  WS02006111           JUNCTION      0.00  1180.41     0  00:00           0        5.76      -0.747
  WS02006112           JUNCTION      0.00  2307.30     0  00:00           0         5.8       0.001
  WS02006113           JUNCTION      0.00   567.54     0  01:52           0        5.72      -0.656
  WS02006115           JUNCTION      0.00   953.54     0  00:00           0        5.77      -0.621
  WS02006116           JUNCTION      0.00  1264.47     0  00:00           0        5.81      -0.404
  WS02006228           JUNCTION      0.00   869.18     0  00:00           0        5.71      -0.036
  WS02006229           JUNCTION      0.00   555.13     0  02:41           0         5.7      -0.036
  WS02006230           JUNCTION     10.28   706.67     0  00:00       0.296        5.68       0.001
  WS02006231           JUNCTION      0.00   580.78     0  01:51           0        5.37      -0.050
  WS02006232           JUNCTION      0.00   579.91     0  01:51           0        5.37       0.156
  WS02006234           JUNCTION      0.00   575.21     0  01:51           0        5.36      -0.155
  WS02006235           JUNCTION      0.00   567.46     0  01:51           0        5.39       0.126
  WS02006238           JUNCTION      0.00   430.64     0  04:01           0         4.3      -0.110
  WS02006239           JUNCTION      0.00   430.23     0  04:01           0        4.27      -0.143
  WS02006240           JUNCTION      0.00   427.92     0  04:06           0        4.26      -0.040
  WS02006242           JUNCTION      0.00   427.09     0  04:06           0        4.26       0.060
  WS02006243           JUNCTION      0.00   426.14     0  04:06           0        4.26      -0.101
  WS02006245           JUNCTION      0.00   425.85     0  03:56           0        4.27       0.296
  WS02006247           JUNCTION      0.00   425.57     0  03:56           0        4.27       0.005
  WS02006248           JUNCTION      0.00   425.96     0  03:56           0        4.27      -0.026
  WS02006249           JUNCTION      0.00   452.97     0  00:05           0        4.59       0.329
  WS02006251           JUNCTION      0.00   444.44     0  07:30           0        4.59       0.020
  WS02006252           JUNCTION      0.00   400.00     0  00:05           0        4.58      -0.294
  WS02006256           JUNCTION      0.00   300.00     0  00:25           0        1.63      -1.042
  WSF200               JUNCTION      0.00   535.13     0  02:57           0        5.72       0.007
  YS02001580           JUNCTION      0.00    76.22     0  01:22           0     0.00439       0.872
  YS02001583           JUNCTION      0.00   103.68     0  01:21           0      0.0162      -3.480
  YS02001586           JUNCTION   5219.07  5219.07     0  02:37        8.92        8.93       0.017
  YS02001590           JUNCTION      0.00   319.36     0  02:29           0        2.64      -0.031
  YS02001593           JUNCTION      0.00   320.69     0  02:29           0        2.64       0.006
  YS02001596           JUNCTION      0.00   318.10     0  02:05           0        2.64      -0.010
  YS02001600           JUNCTION      0.00   318.25     0  02:03           0        2.64       0.010
  YS02001601           JUNCTION   7924.18  8241.79     0  02:37        11.6        14.3       0.009
  YS02001602           JUNCTION      0.00   510.83     0  01:21           0        3.66       0.010
  YS02001605           JUNCTION      0.00   510.95     0  01:21           0        3.29       0.017
  YS02001607           JUNCTION      0.00   511.13     0  01:21           0        3.29       0.053
  YS02001610           JUNCTION      0.00   960.31     0  02:29           0        5.43       0.041
  YS02001613           JUNCTION      0.00   622.86     0  02:29           0        3.68       0.036
  YS02001616           JUNCTION      0.00   644.18     0  02:29           0        3.68       0.013
  YS02001619           JUNCTION   8981.20  8981.20     0  02:37        14.4        15.9       0.006
  YS02001622           JUNCTION      0.00  1054.06     0  02:41           0        7.85      -0.003
  YS02001625           JUNCTION      0.00  1505.53     0  02:34           0        9.44       0.124
  YS02001629           JUNCTION      0.00  1139.11     0  02:40           0        5.81      -0.012
  YS02001633           JUNCTION   5927.19  5927.19     0  02:37        8.62        11.7       0.030
  YS02001641           JUNCTION      0.00  1316.11     0  01:32           0        6.98       0.036
  YS02001644           JUNCTION   5221.36  6972.82     0  02:37        7.51        16.1       0.022
  YS02001647           JUNCTION      0.00  1665.99     0  01:32           0        7.73       0.002
  YS02001649           JUNCTION      0.00  3237.13     0  02:39           0        12.9       0.003
  YS02001652           JUNCTION      0.00  2429.25     0  02:40           0        6.15      -0.023
  YS02001655           JUNCTION      0.00  2731.29     0  02:38           0        6.36       0.027
  YS02001658           JUNCTION      0.00  2783.86     0  02:35           0        6.39      -0.037
  YS02001661           JUNCTION      0.00  2783.85     0  02:35           0        6.38      -0.033
  YS02001664           JUNCTION   5064.97  5064.97     0  02:36        7.04        7.04       0.005
  YS02001745           JUNCTION   3066.39  3066.39     0  02:36        4.12        4.12       0.033
  YS02001748           JUNCTION      0.00  3063.49     0  02:36           0        4.12      -0.046
  YS02001751           JUNCTION      0.00  2355.92     0  02:38           0        4.01       0.024
  YS02001754           JUNCTION      0.00  2355.41     0  02:38           0        4.01      -0.040
  YS02001757           JUNCTION      0.00  3762.08     0  02:38           0        19.5       0.026
  YS02001759           JUNCTION   4276.60  4276.60     0  02:36        5.74        8.01      -0.008
  YS02001762           JUNCTION      0.00   723.18     0  02:39           0        3.11      -0.000
  YS02001765           JUNCTION      0.00   722.52     0  02:38           0        3.11       0.001
  YS02001767           JUNCTION      0.00   722.32     0  02:38           0        3.11       0.001
  YS02001770           JUNCTION   6156.70  6877.98     0  02:36        8.61        9.48       0.005
  YS02001774           JUNCTION      0.00   852.18     0  02:35           0        2.48       0.040
  YS02001779           JUNCTION      0.00   851.80     0  02:31           0        2.44      -0.002
  YS02001783           JUNCTION      0.00  1210.54     0  01:27           0        6.35      -0.004
  YS02001784           JUNCTION      0.00  1210.33     0  01:27           0        6.35      -0.001
  YS02001786           JUNCTION      0.00  1210.61     0  01:26           0        6.35       0.003
  YS02001788           JUNCTION      0.00  1211.87     0  01:26           0        6.35       0.001
  YS02001790           JUNCTION      0.00  1214.29     0  01:25           0        6.35       0.028
  YS02001791           JUNCTION      0.00  1314.95     0  01:30           0        6.34      -0.042
  YS02001793           JUNCTION      0.00  1272.33     0  01:30           0        6.35       0.004
  YS02001882           JUNCTION      0.00   121.65     0  01:21           0      0.0144       1.740
  YS02001884           JUNCTION      0.00   154.32     0  01:21           0      0.0522       3.303
  YS02001887           JUNCTION   1772.01  1774.32     0  01:26        2.64        2.68       0.136
  YS02001890           JUNCTION      0.00  1774.21     0  01:26           0        2.63       0.136
  YS02001895           JUNCTION      0.00   601.25     0  01:22           0        1.87       0.099
  YS02001898           JUNCTION      0.00   600.89     0  01:22           0        1.87      -0.078
  YS02001901           JUNCTION      0.00   599.03     0  01:22           0        1.87       0.121
  YS02001904           JUNCTION      0.00   598.45     0  01:22           0        1.89       0.093
  YS02001907           JUNCTION      0.00  3654.51     0  01:27           0        7.66       0.189
  YS02001910           JUNCTION      0.00  1993.17     0  01:28           0        5.19       0.115
  YS02001915           JUNCTION   2016.36  2980.97     0  01:28        3.71        5.71       0.008
  YS02001918           JUNCTION      0.00   977.38     0  01:29           0        2.04      -0.030
  YS02001920           JUNCTION      0.00   977.47     0  01:29           0        2.01      -0.003
  YS02001923           JUNCTION      0.00  1143.24     0  01:22           0        1.99      -0.064
  YS02001926           JUNCTION      0.00  1492.90     0  01:22           0        1.97      -0.006
  YS02001929           JUNCTION    975.62   988.29     0  01:23        1.95        1.96      -0.057
  YS02006553           JUNCTION      0.00  1143.85     0  01:27           0         3.7       0.293
  YS02006556           JUNCTION      0.00  1141.33     0  01:27           0        3.72       0.181
  YS02006558           JUNCTION   2349.11  2349.11     0  01:27        3.88        6.98       0.042
  YS02006561           JUNCTION      0.00  1209.97     0  01:27           0        6.34      -0.004
  YS02163301           JUNCTION      0.00  1138.95     0  02:39           0        5.82       0.021
  YS02163601           JUNCTION      0.00  1316.13     0  01:32           0        6.97       0.072
  YS02164001           JUNCTION      0.00  1316.15     0  01:32           0        6.97       0.026
  CC-1                 OUTFALL       0.00   683.00     0  00:05           0        7.75       0.000
  CC-2                 OUTFALL       0.00   683.00     0  00:05           0        6.94       0.000
  JK-1                 OUTFALL       0.00  1000.00     0  00:05           0        2.76       0.000
  JK-2                 OUTFALL       0.00  1000.00     0  00:05           0        2.08       0.000
  WSC                  OUTFALL       0.00   553.54     0  02:09           0        6.24       0.000
  CC-storage           STORAGE       0.00  2830.25     0  01:50           0        20.8      -0.160
  JK-storage           STORAGE       0.00  1278.14     0  01:37           0         6.5      -0.271
  
  
  **********************
  Node Surcharge Summary
  **********************
  
  Surcharging occurs when water rises above the top of the highest conduit.
  ---------------------------------------------------------------------
                                               Max. Height   Min. Depth
                                   Hours       Above Crown    Below Rim
  Node                 Type      Surcharged         Meters       Meters
  ---------------------------------------------------------------------
  WS02006109           JUNCTION        2.71          0.461        1.359
  WS02006110           JUNCTION        1.06          0.544        1.306
  WS02006111           JUNCTION        0.01          0.856        1.014
  WS02006112           JUNCTION        1.08          1.680        0.000
  WS02006113           JUNCTION        0.01          0.705        1.225
  WS02006115           JUNCTION        0.01          0.682        1.568
  WS02006116           JUNCTION        0.01          0.053        2.237
  WS02006228           JUNCTION        2.69          0.810        1.390
  WS02006229           JUNCTION        2.71          0.510        1.940
  WS02006230           JUNCTION        1.09          0.245        1.325
  WS02006231           JUNCTION        1.21          0.333        1.197
  WS02006232           JUNCTION        2.74          0.765        0.715
  WS02006234           JUNCTION        1.76          1.010        0.230
  WS02006235           JUNCTION        2.65          1.039        0.251
  WS02006238           JUNCTION        2.70          1.055        0.375
  WS02006239           JUNCTION        2.65          0.970        0.320
  WS02006240           JUNCTION        2.63          0.898        0.492
  WS02006242           JUNCTION        2.67          0.820        0.000
  WS02006243           JUNCTION        2.62          0.690        0.080
  WS02006245           JUNCTION        2.62          0.606        0.244
  WS02006247           JUNCTION        2.62          0.553        0.207
  WS02006248           JUNCTION        2.60          0.380        0.000
  WS02006249           JUNCTION        2.60          0.390        0.000
  WS02006251           JUNCTION        1.29          0.357        0.823
  WS02006252           JUNCTION        2.88          1.100        0.000
  WS02006256           JUNCTION        6.64          2.050        0.000
  YS02001580           JUNCTION        1.83          0.450        0.000
  YS02001583           JUNCTION        1.84          0.500        0.000
  YS02001586           JUNCTION        1.95          0.510        0.000
  YS02001590           JUNCTION        2.03          0.747        0.003
  YS02001593           JUNCTION        2.03          0.717        0.123
  YS02001596           JUNCTION        2.13          0.962        0.108
  YS02001600           JUNCTION        2.24          1.190        0.000
  YS02001601           JUNCTION        2.47          1.440        0.000
  YS02001602           JUNCTION        2.41          1.270        0.000
  YS02001605           JUNCTION        2.38          1.180        0.000
  YS02001607           JUNCTION        2.04          0.680        0.000
  YS02001610           JUNCTION        2.06          0.680        0.000
  YS02001613           JUNCTION        2.04          0.700        0.000
  YS02001616           JUNCTION        1.99          0.610        0.000
  YS02001619           JUNCTION        1.98          0.610        0.000
  YS02001622           JUNCTION        1.98          0.620        0.000
  YS02001625           JUNCTION        2.16          0.780        0.000
  YS02001629           JUNCTION        1.92          0.470        0.000
  YS02001633           JUNCTION        2.22          1.060        0.000
  YS02001641           JUNCTION        2.19          1.100        0.000
  YS02001644           JUNCTION        2.17          0.920        0.000
  YS02001647           JUNCTION        1.87          0.830        0.070
  YS02001649           JUNCTION        2.02          1.050        0.000
  YS02001652           JUNCTION        1.81          1.130        0.000
  YS02001655           JUNCTION        1.61          1.200        0.000
  YS02001658           JUNCTION        1.30          1.300        0.000
  YS02001661           JUNCTION        0.73          1.390        0.000
  YS02001664           JUNCTION        0.41          1.310        0.000
  YS02001745           JUNCTION        0.44          1.350        0.000
  YS02001748           JUNCTION        1.17          1.190        0.000
  YS02001751           JUNCTION        1.50          1.200        0.000
  YS02001754           JUNCTION        1.73          1.150        0.000
  YS02001757           JUNCTION        2.08          1.210        0.000
  YS02001759           JUNCTION        1.99          1.210        0.000
  YS02001762           JUNCTION        1.95          1.150        0.000
  YS02001765           JUNCTION        1.91          1.100        0.000
  YS02001767           JUNCTION        1.89          1.024        0.006
  YS02001770           JUNCTION        1.86          0.920        0.000
  YS02001774           JUNCTION        1.94          1.033        0.017
  YS02001779           JUNCTION        1.71          0.680        0.000
  YS02001783           JUNCTION        1.09          0.918        0.682
  YS02001784           JUNCTION        1.05          0.757        0.733
  YS02001786           JUNCTION        0.90          0.827        0.603
  YS02001882           JUNCTION        1.00          0.830        0.000
  YS02001884           JUNCTION        1.02          0.870        0.000
  YS02001887           JUNCTION        1.07          0.950        0.000
  YS02001890           JUNCTION        1.09          0.760        0.000
  YS02001895           JUNCTION        0.98          0.750        0.000
  YS02001898           JUNCTION        0.97          0.740        0.000
  YS02001901           JUNCTION        1.05          0.870        0.000
  YS02001904           JUNCTION        1.04          0.850        0.000
  YS02001907           JUNCTION        1.45          0.950        0.000
  YS02001910           JUNCTION        1.13          1.029        0.071
  YS02001915           JUNCTION        1.00          1.000        0.000
  YS02001918           JUNCTION        0.88          0.810        0.000
  YS02001920           JUNCTION        0.90          1.140        0.000
  YS02001923           JUNCTION        0.39          0.820        0.000
  YS02001926           JUNCTION        0.42          0.900        0.000
  YS02001929           JUNCTION        0.28          0.780        0.000
  YS02006553           JUNCTION        1.50          1.081        0.109
  YS02006556           JUNCTION        1.26          1.186        0.164
  YS02006558           JUNCTION        1.24          1.288        0.112
  YS02006561           JUNCTION        0.84          0.521        0.629
  YS02163301           JUNCTION        2.19          1.030        0.000
  YS02163601           JUNCTION        2.26          1.080        0.000
  YS02164001           JUNCTION        2.19          1.100        0.000
  
  
  *********************
  Node Flooding Summary
  *********************
  
  Flooding refers to all water that overflows a node, whether it ponds or not.
  --------------------------------------------------------------------------
                                                             Total   Maximum
                                 Maximum   Time of Max       Flood    Ponded
                        Hours       Rate    Occurrence      Volume     Depth
  Node                 Flooded       LPS   days hr:min    10^6 ltr    Meters
  --------------------------------------------------------------------------
  WS02006112              0.01   1405.86      0  00:00       0.047     0.000
  WS02006242              0.01      5.02      0  02:40       0.000     0.000
  WS02006248              0.01     53.77      0  01:36       0.000     0.000
  WS02006249              1.25    110.92      0  01:36       0.303     0.000
  WS02006252              0.01      2.41      0  01:35       0.000     0.000
  WS02006256              1.51    290.34      0  04:10       0.551     0.000
  YS02001580              0.01     64.09      0  01:22       0.000     0.000
  YS02001583              0.01     31.43      0  01:22       0.000     0.000
  YS02001586              1.66   4901.43      0  02:37       6.279     0.000
  YS02001600              0.01      0.67      0  01:22       0.000     0.000
  YS02001601              1.88   7843.86      0  02:37      10.617     0.000
  YS02001602              1.71     62.28      0  02:29       0.370     0.000
  YS02001605              0.01      0.44      0  02:39       0.000     0.000
  YS02001607              0.01      0.95      0  02:39       0.000     0.000
  YS02001610              1.64    958.45      0  02:29       3.901     0.000
  YS02001613              0.01      1.30      0  02:29       0.000     0.000
  YS02001616              0.14     28.20      0  02:29       0.001     0.000
  YS02001619              0.73   7312.20      0  02:37       5.923     0.000
  YS02001622              0.01      0.64      0  02:29       0.000     0.000
  YS02001625              1.60   1505.28      0  02:33       6.390     0.000
  YS02001629              0.75    686.89      0  02:40       1.187     0.000
  YS02001633              0.35   3884.00      0  02:37       1.913     0.000
  YS02001641              0.01      1.26      0  02:29       0.000     0.000
  YS02001644              1.19   6972.61      0  02:37       9.989     0.000
  YS02001649              0.41   2392.14      0  02:39       2.304     0.000
  YS02001652              0.01      0.82      0  02:29       0.000     0.000
  YS02001655              0.21    303.14      0  02:33       0.204     0.000
  YS02001658              0.17     52.24      0  02:35       0.031     0.000
  YS02001661              0.01      1.12      0  02:29       0.000     0.000
  YS02001664              0.17   2280.24      0  02:36       0.659     0.000
  YS02001745              0.01      4.87      0  02:35       0.000     0.000
  YS02001748              0.08    709.89      0  02:36       0.107     0.000
  YS02001751              0.01      6.53      0  02:39       0.000     0.000
  YS02001754              0.01      2.67      0  02:39       0.000     0.000
  YS02001757              0.17    731.01      0  02:38       0.279     0.000
  YS02001759              0.19   2144.81      0  02:36       0.658     0.000
  YS02001762              0.06      1.99      0  02:29       0.000     0.000
  YS02001765              0.01      0.19      0  02:29       0.000     0.000
  YS02001770              0.59   6025.96      0  02:36       4.744     0.000
  YS02001779              1.08    851.49      0  02:31       2.421     0.000
  YS02001882              0.01     60.56      0  01:21       0.000     0.000
  YS02001884              0.01     73.85      0  01:21       0.000     0.000
  YS02001887              0.01      1.89      0  01:25       0.000     0.000
  YS02001890              0.40   1254.54      0  01:26       0.758     0.000
  YS02001895              0.01    168.07      0  01:21       0.000     0.000
  YS02001898              0.01    206.93      0  01:21       0.001     0.000
  YS02001901              0.01     25.06      0  01:21       0.000     0.000
  YS02001904              0.01    104.56      0  01:21       0.000     0.000
  YS02001907              0.79   3654.40      0  01:27       4.535     0.000
  YS02001915              0.22    988.25      0  01:28       0.464     0.000
  YS02001918              0.01    413.18      0  01:22       0.007     0.000
  YS02001920              0.01    314.64      0  01:22       0.000     0.000
  YS02001923              0.01    407.62      0  01:23       0.003     0.000
  YS02001926              0.01    745.68      0  01:22       0.004     0.000
  YS02001929              0.01    940.80      0  01:23       0.005     0.000
  YS02163301              0.01      0.84      0  02:29       0.000     0.000
  YS02163601              0.01      1.08      0  02:39       0.000     0.000
  YS02164001              0.01      0.31      0  01:35       0.000     0.000
  CC-storage              0.32    336.10      0  02:41       0.180     0.000
  
  
  **********************
  Storage Volume Summary
  **********************
  
  --------------------------------------------------------------------------------------------------
                         Average     Avg  Evap Exfil       Maximum     Max    Time of Max    Maximum
                          Volume    Pcnt  Pcnt  Pcnt        Volume    Pcnt     Occurrence    Outflow
  Storage Unit           1000 m3    Full  Loss  Loss       1000 m3    Full    days hr:min        LPS
  --------------------------------------------------------------------------------------------------
  CC-storage               3.013      47     0     0         6.410     100       0  02:41    1766.00
  JK-storage               0.085      29     0     0         0.212      73       0  02:00    2300.00
  
  
  ***********************
  Outfall Loading Summary
  ***********************
  
  -----------------------------------------------------------
                         Flow       Avg       Max       Total
                         Freq      Flow      Flow      Volume
  Outfall Node           Pcnt       LPS       LPS    10^6 ltr
  -----------------------------------------------------------
  CC-1                  55.70    683.00    683.00       7.749
  CC-2                  47.55    683.00    683.00       6.942
  JK-1                  15.82   1000.00   1000.00       2.762
  JK-2                   9.56   1000.00   1000.00       2.081
  WSC                   99.99    271.83    553.54       6.237
  -----------------------------------------------------------
  System                45.73   3637.83    553.54      25.772
  
  
  ********************
  Link Flow Summary
  ********************
  
  -----------------------------------------------------------------------------
                                 Maximum  Time of Max   Maximum    Max/    Max/
                                  |Flow|   Occurrence   |Veloc|    Full    Full
  Link                 Type          LPS  days hr:min     m/sec    Flow   Depth
  -----------------------------------------------------------------------------
  1                    CONDUIT    553.54     0  02:09      2.82    0.19    0.30
  WS02003060WS02003069 CONDUIT    551.57     0  02:58      1.64    0.22    0.34
  WS02003066WSF200     CONDUIT    535.13     0  02:57      2.85    0.09    0.22
  WS02003067WS02003066 CONDUIT    535.10     0  02:57      1.21    0.17    0.42
  WS02003069WS02003072 CONDUIT    551.79     0  02:08      1.37    0.27    0.39
  WS02003072WS02003073 CONDUIT    551.76     0  02:09      1.43    1.19    0.37
  WS02004401WS02004402 CONDUIT   1248.69     0  00:01      2.52    1.50    0.86
  WS02004402WS02004403 CONDUIT    929.44     0  00:01      2.21    1.34    0.88
  WS02004403WS02004404 CONDUIT    877.02     0  00:01      2.01    0.63    0.93
  WS02004404WS02004405 CONDUIT    827.31     0  00:01      2.30    8.11    0.96
  WS02004405WS02004406 CONDUIT    768.45     0  00:02      2.19    1.52    0.96
  WS02004406WS02004407 CONDUIT    536.03     0  02:54      1.04    0.24    0.63
  WS02004407WS02004409 CONDUIT    535.77     0  02:54      2.06    0.19    0.48
  WS02004409WS02004410 CONDUIT    535.35     0  02:56      1.39    0.69    0.67
  WS02004410WS02004411 CONDUIT    535.25     0  02:56      1.32    0.73    0.69
  WS02004411WS02004412 CONDUIT    535.19     0  02:57      1.29    0.76    0.69
  WS02004412WS02004413 CONDUIT    535.27     0  02:57      1.25    0.36    0.78
  WS02004413WS02003067 CONDUIT    535.09     0  02:57      1.11    0.23    0.59
  WS02006109WS02006110 CONDUIT   1446.81     0  00:00      2.88    2.78    1.00
  WS02006110WS02006113 CONDUIT    567.54     0  01:52      1.37    0.52    1.00
  WS02006111WS02006112 CONDUIT   2307.30     0  00:00      9.18    1.10    1.00
  WS02006112WS02006115 CONDUIT    953.54     0  00:00      1.24    0.56    1.00
  WS02006113WS02006111 CONDUIT   1180.41     0  00:00      2.47    1.41    1.00
  WS02006115WS02006116 CONDUIT   1264.47     0  00:00      1.74    1.62    1.00
  WS02006116WS02004401 CONDUIT   1786.04     0  00:00      2.94    2.46    0.84
  WS02006228WS02006109 CONDUIT    869.18     0  00:00      1.91    3.80    1.00
  WS02006229WS02006228 CONDUIT    555.07     0  02:41      1.10    1.84    1.00
  WS02006230WS02006229 CONDUIT    696.39     0  00:00      1.89   15.50    1.00
  WS02006231WS02006230 CONDUIT    581.68     0  02:40      1.91    8.82    1.00
  WS02006232WS02006231 CONDUIT    580.78     0  01:51      1.80    1.22    1.00
  WS02006234WS02006232 CONDUIT    579.91     0  01:51      1.51    1.17    1.00
  WS02006235WS02006234 CONDUIT    575.21     0  01:51      1.49    6.07    1.00
  WS02006238WS02006235 CONDUIT    431.80     0  04:01      1.40    0.96    1.00
  WS02006239WS02006238 CONDUIT    430.64     0  04:01      1.20    1.38    1.00
  WS02006240WS02006239 CONDUIT    430.23     0  04:01      1.29    1.35    1.00
  WS02006242WS02006240 CONDUIT    427.92     0  04:06      1.18    1.70    1.00
  WS02006243WS02006242 CONDUIT    427.09     0  04:06      1.43    0.91    1.00
  WS02006245WS02006243 CONDUIT    426.14     0  04:06      1.44    1.26    1.00
  WS02006247WS02006245 CONDUIT    425.85     0  03:56      1.40    3.38    1.00
  WS02006248WS02006247 CONDUIT    425.57     0  03:56      1.42    0.93    1.00
  WS02006249WS02006248 CONDUIT    425.96     0  03:56      1.38    2.33    1.00
  WS02006251WS02006249 CONDUIT    452.97     0  00:05      1.96    1.31    1.00
  WS02006252WS02006251 CONDUIT    444.44     0  07:30     17.60    1.63    1.00
  WS02006256WS02006235 CONDUIT    288.63     0  06:10      4.20    3.05    1.00
  WSF200WS02003060     CONDUIT    535.26     0  02:58      2.06    0.12    0.28
  YS02001580YS02001583 CONDUIT     76.22     0  01:22      0.51    0.30    1.00
  YS02001583YS02001586 CONDUIT    103.68     0  01:21      0.47    0.16    1.00
  YS02001586YS02001590 CONDUIT    319.36     0  02:29      1.27    0.56    1.00
  YS02001590YS02001593 CONDUIT    320.69     0  02:29      1.13    2.01    1.00
  YS02001593YS02001596 CONDUIT    318.10     0  02:05      1.78    0.50    1.00
  YS02001596YS02001600 CONDUIT    318.25     0  02:03      1.33    0.62    1.00
  YS02001600YS02001601 CONDUIT    318.49     0  02:29      1.13    0.55    1.00
  YS02001601YS02001602 CONDUIT    510.83     0  01:21      1.81    1.85    1.00
  YS02001602YS02001605 CONDUIT    510.95     0  01:21      1.81   10.81    1.00
  YS02001605YS02001607 CONDUIT    511.13     0  01:21      1.81    2.80    1.00
  YS02001607YS02001610 CONDUIT    512.58     0  01:21      0.69    0.49    1.00
  YS02001610YS02001613 CONDUIT    622.81     0  02:29      0.79    0.72    1.00
  YS02001613YS02001616 CONDUIT    622.86     0  02:29      0.79    0.53    1.00
  YS02001616YS02001619 CONDUIT    644.18     0  02:29      0.82    1.12    1.00
  YS02001619YS02001622 CONDUIT   1054.06     0  02:41      1.54    1.55    1.00
  YS02001622YS02001625 CONDUIT   1053.75     0  02:34      1.34    0.56    1.00
  YS02001625YS02001629 CONDUIT    923.73     0  01:31      1.18    0.44    1.00
  YS02001629YS02163301 CONDUIT   1139.11     0  02:40      1.45    1.40    1.00
  YS02001633YS02163601 CONDUIT   1316.13     0  01:32      1.68    1.38    1.00
  YS02001641YS02001644 CONDUIT   1316.27     0  01:32      1.68    4.26    1.00
  YS02001644YS02001647 CONDUIT   1665.99     0  01:32      2.16    0.98    1.00
  YS02001647YS02001649 CONDUIT   1690.62     0  01:32      2.32    0.89    1.00
  YS02001649YS02001757 CONDUIT   1928.49     0  01:32      2.53    1.17    1.00
  YS02001652YS02001649 CONDUIT   2429.38     0  02:33      3.09    1.20    1.00
  YS02001655YS02001652 CONDUIT   2429.25     0  02:40      3.09    1.18    1.00
  YS02001658YS02001655 CONDUIT   2731.29     0  02:38      3.48    1.16    1.00
  YS02001661YS02001658 CONDUIT   2783.86     0  02:35      3.54    1.09    1.00
  YS02001664YS02001661 CONDUIT   2783.85     0  02:35      3.54    0.87    1.00
  YS02001745YS02001748 CONDUIT   3063.49     0  02:36      3.90    1.18    1.00
  YS02001748YS02001751 CONDUIT   2355.92     0  02:38      3.00    1.19    1.00
  YS02001751YS02001754 CONDUIT   2355.41     0  02:38      3.00    1.14    1.00
  YS02001754YS02001757 CONDUIT   2354.79     0  02:38      3.00    0.95    1.00
  YS02001757CaochengTiaoxuchi CONDUIT   2830.25     0  01:50      3.89    1.23    1.00
  YS02001759YS02001757 CONDUIT   1440.52     0  02:29      1.83    1.02    1.00
  YS02001762YS02001759 CONDUIT    723.18     0  02:39      0.92    0.83    1.00
  YS02001765YS02001762 CONDUIT    722.52     0  02:38      0.92    0.68    1.00
  YS02001767YS02001765 CONDUIT    722.32     0  02:38      0.92    0.91    1.00
  YS02001770YS02001767 CONDUIT    722.27     0  02:38      0.92    2.86    1.00
  YS02001774YS02001770 CONDUIT    852.18     0  02:35      1.09    0.54    1.00
  YS02001779YS02001774 CONDUIT    851.80     0  02:31      1.08    0.43    1.00
  YS02001783YS02001784 CONDUIT   1210.33     0  01:27      2.41    1.67    1.00
  YS02001784YS02001785 CONDUIT   1210.61     0  01:26      2.41    2.82    1.00
  YS02001786YS02001788 CONDUIT   1211.87     0  01:26      2.56    2.34    0.90
  YS02001788YS02001790 CONDUIT   1214.29     0  01:25      2.79    0.89    0.85
  YS02001790YS02001791 CONDUIT   1314.95     0  01:30      3.47    1.43    0.71
  YS02001791YS02001793 CONDUIT   1272.33     0  01:30      6.78    0.55    0.45
  YS02001793JiankangQianchi CONDUIT   1278.14     0  01:37      2.54    0.10    0.65
  YS02001882YS02001884 CONDUIT    121.65     0  01:21      0.28    0.14    1.00
  YS02001884YS02001887 CONDUIT    154.32     0  01:21      0.23    0.21    1.00
  YS02001887YS02001890 CONDUIT   1774.21     0  01:26      2.26    3.04    1.00
  YS02001890YS02001895 CONDUIT    601.25     0  01:22      0.77    0.28    1.00
  YS02001895YS02001898 CONDUIT    600.89     0  01:22      0.77    1.04    1.00
  YS02001898YS02001901 CONDUIT    599.03     0  01:22      0.76    0.39    1.00
  YS02001901YS02001904 CONDUIT    598.45     0  01:22      0.76    0.93    1.00
  YS02001904YS02001907 CONDUIT    597.53     0  01:22      0.76    0.21    1.00
  YS02001907YS02006553 CONDUIT   1143.96     0  01:27      1.27    1.35    1.00
  YS02001910YS02001907 CONDUIT   1993.00     0  01:28      2.54    1.12    1.00
  YS02001915YS02001910 CONDUIT   1993.17     0  01:28      2.54    0.99    1.00
  YS02001918YS02001915 CONDUIT    977.61     0  01:29      1.24    0.54    1.00
  YS02001920YS02001918 CONDUIT    977.38     0  01:29      1.24    0.95    1.00
  YS02001923YS02001920 CONDUIT    977.47     0  01:29      1.24    0.44    1.00
  YS02001926YS02001923 CONDUIT   1203.47     0  01:22      1.68    1.72    1.00
  YS02001929YS02001926 CONDUIT    976.05     0  01:29      1.28    0.46    1.00
  YS02006553YS02006556 CONDUIT   1143.85     0  01:27      1.46    0.98    1.00
  YS02006556YS02006558 CONDUIT   1141.33     0  01:27      1.45    0.90    1.00
  YS02006558YS02006561 CONDUIT   1209.97     0  01:27      4.28    2.67    1.00
  YS02006561YS02001783 CONDUIT   1210.54     0  01:27      2.41    0.63    1.00
  YS02163301YS02001633 CONDUIT   1138.95     0  02:39      1.45    1.07    1.00
  YS02163601YS02164001 CONDUIT   1316.15     0  01:32      1.68    1.17    1.00
  YS02164001YS02001641 CONDUIT   1316.11     0  01:32      1.68    1.80    1.00
  CC-R1                PUMP       683.00     0  00:05              1.00
  CC-R2                PUMP       683.00     0  00:05              1.00
  CC-S1                PUMP       200.00     0  00:05              1.00
  CC-S2                PUMP       200.00     0  00:05              1.00
  JK-R1                PUMP      1000.00     0  00:05              1.00
  JK-R2                PUMP      1000.00     0  00:05              1.00
  JK-S                 PUMP       300.00     0  00:25              1.00
  
  
  ***************************
  Flow Classification Summary
  ***************************
  
  -------------------------------------------------------------------------------------
                      Adjusted    ---------- Fraction of Time in Flow Class ---------- 
                       /Actual         Up    Down  Sub   Sup   Up    Down  Norm  Inlet 
  Conduit               Length    Dry  Dry   Dry   Crit  Crit  Crit  Crit  Ltd   Ctrl  
  -------------------------------------------------------------------------------------
  1                       1.00   0.00  0.00  0.00  0.00  1.00  0.00  0.00  0.36  0.00
  WS02003060WS02003069    1.00   0.00  0.00  0.00  0.95  0.05  0.00  0.00  0.61  0.00
  WS02003066WSF200        1.00   0.01  0.00  0.00  0.00  0.99  0.00  0.00  0.81  0.00
  WS02003067WS02003066    1.00   0.01  0.00  0.00  0.99  0.00  0.00  0.00  0.00  0.00
  WS02003069WS02003072    1.00   0.00  0.00  0.00  1.00  0.00  0.00  0.00  0.64  0.00
  WS02003072WS02003073    1.00   0.00  0.00  0.00  0.00  0.00  0.00  1.00  0.00  0.00
  WS02004401WS02004402    1.00   0.00  0.00  0.00  1.00  0.00  0.00  0.00  0.00  0.00
  WS02004402WS02004403    1.00   0.00  0.00  0.00  1.00  0.00  0.00  0.00  0.00  0.00
  WS02004403WS02004404    1.00   0.00  0.00  0.00  1.00  0.00  0.00  0.00  0.00  0.00
  WS02004404WS02004405    1.00   0.00  0.00  0.00  1.00  0.00  0.00  0.00  0.01  0.00
  WS02004405WS02004406    1.00   0.00  0.00  0.00  1.00  0.00  0.00  0.00  0.00  0.00
  WS02004406WS02004407    1.00   0.00  0.00  0.00  1.00  0.00  0.00  0.00  0.00  0.00
  WS02004407WS02004409    1.00   0.00  0.00  0.00  0.99  0.01  0.00  0.00  0.99  0.00
  WS02004409WS02004410    1.00   0.00  0.00  0.00  1.00  0.00  0.00  0.00  0.00  0.00
  WS02004410WS02004411    1.00   0.00  0.00  0.00  1.00  0.00  0.00  0.00  0.00  0.00
  WS02004411WS02004412    1.00   0.00  0.00  0.00  1.00  0.00  0.00  0.00  0.00  0.00
  WS02004412WS02004413    1.00   0.00  0.00  0.00  0.99  0.00  0.00  0.00  0.00  0.00
  WS02004413WS02003067    1.00   0.00  0.00  0.00  0.00  0.00  0.99  0.00  0.00  0.00
  WS02006109WS02006110    1.00   0.00  0.00  0.00  1.00  0.00  0.00  0.00  0.00  0.00
  WS02006110WS02006113    1.00   0.00  0.00  0.00  1.00  0.00  0.00  0.00  0.00  0.00
  WS02006111WS02006112    1.00   0.00  0.00  0.00  1.00  0.00  0.00  0.00  1.00  0.00
  WS02006112WS02006115    1.00   0.00  0.00  0.00  1.00  0.00  0.00  0.00  0.00  0.00
  WS02006113WS02006111    1.00   0.00  0.00  0.00  0.00  1.00  0.00  0.00  0.14  0.00
  WS02006115WS02006116    1.00   0.00  0.00  0.00  1.00  0.00  0.00  0.00  0.00  0.00
  WS02006116WS02004401    1.00   0.00  0.00  0.00  1.00  0.00  0.00  0.00  0.00  0.00
  WS02006228WS02006109    1.00   0.00  0.00  0.00  1.00  0.00  0.00  0.00  0.00  0.00
  WS02006229WS02006228    1.00   0.00  0.00  0.00  1.00  0.00  0.00  0.00  0.00  0.00
  WS02006230WS02006229    1.00   0.00  0.00  0.00  1.00  0.00  0.00  0.00  0.02  0.00
  WS02006231WS02006230    1.00   0.00  0.00  0.00  0.49  0.00  0.51  0.00  0.00  0.00
  WS02006232WS02006231    1.00   0.00  0.00  0.00  0.98  0.00  0.01  0.00  0.00  0.00
  WS02006234WS02006232    1.00   0.00  0.00  0.00  1.00  0.00  0.00  0.00  0.02  0.00
  WS02006235WS02006234    1.00   0.00  0.00  0.00  0.89  0.00  0.11  0.00  0.00  0.00
  WS02006238WS02006235    1.00   0.00  0.00  0.00  1.00  0.00  0.00  0.00  0.00  0.00
  WS02006239WS02006238    1.00   0.00  0.00  0.00  1.00  0.00  0.00  0.00  0.18  0.00
  WS02006240WS02006239    1.00   0.01  0.00  0.00  0.79  0.00  0.00  0.20  0.02  0.00
  WS02006242WS02006240    1.00   0.01  0.00  0.00  0.97  0.00  0.02  0.00  0.00  0.00
  WS02006243WS02006242    1.00   0.01  0.00  0.00  0.98  0.00  0.00  0.02  0.51  0.00
  WS02006245WS02006243    1.00   0.01  0.00  0.00  0.88  0.00  0.00  0.11  0.00  0.00
  WS02006247WS02006245    1.00   0.01  0.00  0.00  0.96  0.00  0.00  0.03  0.00  0.00
  WS02006248WS02006247    1.00   0.01  0.00  0.00  0.97  0.00  0.00  0.02  0.45  0.00
  WS02006249WS02006248    1.00   0.01  0.00  0.00  0.74  0.00  0.26  0.00  0.00  0.00
  WS02006251WS02006249    1.00   0.01  0.00  0.00  0.98  0.01  0.00  0.00  0.48  0.00
  WS02006252WS02006251    1.00   0.02  0.22  0.00  0.22  0.00  0.55  0.00  0.00  0.00
  WS02006256WS02006235    1.00   0.00  0.00  0.00  0.99  0.01  0.00  0.00  0.01  0.00
  WSF200WS02003060        1.00   0.00  0.01  0.00  0.28  0.71  0.00  0.00  0.58  0.00
  YS02001580YS02001583    1.00   0.16  0.36  0.00  0.48  0.00  0.00  0.00  0.58  0.00
  YS02001583YS02001586    1.00   0.20  0.20  0.00  0.59  0.00  0.01  0.00  0.58  0.00
  YS02001586YS02001590    1.00   0.09  0.00  0.00  0.76  0.02  0.00  0.14  0.31  0.00
  YS02001590YS02001593    1.00   0.09  0.00  0.00  0.42  0.00  0.50  0.00  0.00  0.00
  YS02001593YS02001596    1.00   0.09  0.00  0.00  0.44  0.01  0.00  0.46  0.01  0.00
  YS02001596YS02001600    1.00   0.09  0.00  0.00  0.50  0.01  0.00  0.41  0.02  0.00
  YS02001600YS02001601    1.00   0.09  0.00  0.00  0.91  0.00  0.00  0.00  0.51  0.00
  YS02001601YS02001602    1.00   0.09  0.00  0.00  0.91  0.00  0.00  0.00  0.00  0.00
  YS02001602YS02001605    1.00   0.09  0.00  0.00  0.91  0.00  0.00  0.00  0.00  0.00
  YS02001605YS02001607    1.00   0.09  0.00  0.00  0.91  0.00  0.00  0.00  0.00  0.00
  YS02001607YS02001610    1.00   0.09  0.00  0.00  0.91  0.00  0.00  0.00  0.00  0.00
  YS02001610YS02001613    1.00   0.09  0.00  0.00  0.91  0.00  0.00  0.00  0.00  0.00
  YS02001613YS02001616    1.00   0.09  0.00  0.00  0.91  0.00  0.00  0.00  0.00  0.00
  YS02001616YS02001619    1.00   0.09  0.00  0.00  0.91  0.00  0.00  0.00  0.00  0.00
  YS02001619YS02001622    1.00   0.09  0.00  0.00  0.89  0.02  0.00  0.00  0.22  0.00
  YS02001622YS02001625    1.00   0.09  0.00  0.00  0.91  0.00  0.00  0.00  0.01  0.00
  YS02001625YS02001629    1.00   0.09  0.01  0.00  0.47  0.00  0.44  0.00  0.00  0.00
  YS02001629YS02163301    1.00   0.09  0.00  0.00  0.91  0.00  0.00  0.00  0.00  0.00
  YS02001633YS02163601    1.00   0.09  0.00  0.00  0.91  0.00  0.00  0.00  0.00  0.00
  YS02001641YS02001644    1.00   0.09  0.00  0.00  0.91  0.00  0.00  0.00  0.00  0.00
  YS02001644YS02001647    1.00   0.09  0.01  0.00  0.91  0.00  0.00  0.00  0.00  0.00
  YS02001647YS02001649    1.00   0.09  0.00  0.00  0.66  0.25  0.00  0.00  0.51  0.00
  YS02001649YS02001757    1.00   0.00  0.09  0.00  0.65  0.26  0.00  0.00  0.13  0.00
  YS02001652YS02001649    1.00   0.09  0.00  0.00  0.90  0.01  0.00  0.00  0.51  0.00
  YS02001655YS02001652    1.00   0.09  0.00  0.00  0.48  0.01  0.00  0.42  0.03  0.00
  YS02001658YS02001655    1.00   0.09  0.00  0.00  0.77  0.13  0.00  0.00  0.56  0.00
  YS02001661YS02001658    1.00   0.09  0.00  0.00  0.51  0.40  0.00  0.00  0.58  0.00
  YS02001664YS02001661    1.00   0.09  0.00  0.00  0.74  0.18  0.00  0.00  0.72  0.00
  YS02001745YS02001748    1.00   0.09  0.00  0.00  0.33  0.00  0.00  0.57  0.04  0.00
  YS02001748YS02001751    1.00   0.09  0.00  0.00  0.78  0.13  0.00  0.00  0.54  0.00
  YS02001751YS02001754    1.00   0.09  0.00  0.00  0.46  0.02  0.00  0.44  0.03  0.00
  YS02001754YS02001757    1.00   0.00  0.09  0.00  0.91  0.00  0.00  0.00  0.53  0.00
  YS02001757CaochengTiaoxuchi    1.00   0.00  0.00  0.00  0.89  0.11  0.00  0.00  0.64  0.00
  YS02001759YS02001757    1.00   0.00  0.09  0.00  0.91  0.00  0.00  0.00  0.47  0.00
  YS02001762YS02001759    1.00   0.09  0.00  0.00  0.91  0.00  0.00  0.00  0.00  0.00
  YS02001765YS02001762    1.00   0.09  0.00  0.00  0.91  0.00  0.00  0.00  0.49  0.00
  YS02001767YS02001765    1.00   0.09  0.00  0.00  0.91  0.00  0.00  0.00  0.00  0.00
  YS02001770YS02001767    1.00   0.09  0.00  0.00  0.91  0.00  0.00  0.00  0.00  0.00
  YS02001774YS02001770    1.00   0.09  0.00  0.00  0.81  0.00  0.10  0.00  0.00  0.00
  YS02001779YS02001774    1.00   0.09  0.23  0.00  0.68  0.00  0.00  0.00  0.51  0.00
  YS02001783YS02001784    1.00   0.13  0.00  0.00  0.87  0.01  0.00  0.00  0.54  0.00
  YS02001784YS02001785    1.00   0.13  0.00  0.00  0.87  0.00  0.00  0.00  0.36  0.00
  YS02001786YS02001788    1.00   0.13  0.00  0.00  0.62  0.25  0.00  0.00  0.00  0.00
  YS02001788YS02001790    1.00   0.14  0.00  0.00  0.18  0.68  0.00  0.00  0.60  0.00
  YS02001790YS02001791    1.00   0.14  0.00  0.00  0.01  0.85  0.00  0.00  0.14  0.00
  YS02001791YS02001793    1.00   0.14  0.00  0.00  0.00  0.85  0.00  0.00  0.02  0.00
  YS02001793JiankangQianchi    1.00   0.00  0.15  0.00  0.77  0.08  0.00  0.00  0.77  0.00
  YS02001882YS02001884    1.00   0.10  0.00  0.00  0.90  0.00  0.00  0.00  0.00  0.00
  YS02001884YS02001887    1.00   0.09  0.00  0.00  0.91  0.00  0.00  0.00  0.00  0.00
  YS02001887YS02001890    1.00   0.09  0.00  0.00  0.91  0.00  0.00  0.00  0.00  0.00
  YS02001890YS02001895    1.00   0.09  0.01  0.00  0.90  0.00  0.00  0.00  0.00  0.00
  YS02001895YS02001898    1.00   0.10  0.00  0.00  0.87  0.00  0.04  0.00  0.00  0.00
  YS02001898YS02001901    1.00   0.10  0.00  0.00  0.89  0.01  0.00  0.00  0.00  0.00
  YS02001901YS02001904    1.00   0.10  0.01  0.00  0.89  0.00  0.00  0.00  0.00  0.00
  YS02001904YS02001907    1.00   0.09  0.02  0.00  0.89  0.00  0.00  0.00  0.00  0.00
  YS02001907YS02006553    1.00   0.09  0.00  0.00  0.91  0.00  0.00  0.00  0.00  0.00
  YS02001910YS02001907    1.00   0.09  0.00  0.00  0.91  0.00  0.00  0.01  0.01  0.00
  YS02001915YS02001910    1.00   0.09  0.00  0.00  0.88  0.03  0.00  0.00  0.01  0.00
  YS02001918YS02001915    1.00   0.09  0.01  0.00  0.90  0.00  0.00  0.00  0.63  0.00
  YS02001920YS02001918    1.00   0.09  0.01  0.00  0.90  0.00  0.00  0.00  0.00  0.00
  YS02001923YS02001920    1.00   0.09  0.00  0.00  0.91  0.00  0.00  0.00  0.71  0.00
  YS02001926YS02001923    1.00   0.09  0.00  0.00  0.20  0.00  0.70  0.00  0.00  0.00
  YS02001929YS02001926    1.00   0.09  0.00  0.00  0.91  0.00  0.00  0.00  0.75  0.00
  YS02006553YS02006556    1.00   0.09  0.00  0.00  0.91  0.00  0.00  0.00  0.00  0.00
  YS02006556YS02006558    1.00   0.09  0.00  0.00  0.91  0.00  0.00  0.00  0.00  0.00
  YS02006558YS02006561    1.00   0.13  0.00  0.00  0.19  0.68  0.00  0.00  0.13  0.00
  YS02006561YS02001783    1.00   0.13  0.00  0.00  0.31  0.56  0.00  0.00  0.62  0.00
  YS02163301YS02001633    1.00   0.09  0.00  0.00  0.91  0.00  0.00  0.00  0.00  0.00
  YS02163601YS02164001    1.00   0.09  0.00  0.00  0.91  0.00  0.00  0.00  0.00  0.00
  YS02164001YS02001641    1.00   0.09  0.00  0.00  0.91  0.00  0.00  0.00  0.00  0.00
  
  
  *************************
  Conduit Surcharge Summary
  *************************
  
  ----------------------------------------------------------------------------
                                                           Hours        Hours 
                         --------- Hours Full --------   Above Full   Capacity
  Conduit                Both Ends  Upstream  Dnstream   Normal Flow   Limited
  ----------------------------------------------------------------------------
  WS02003072WS02003073        0.01      0.01      0.01      1.60         0.01
  WS02004401WS02004402        0.01      0.01      0.01      0.01         0.01
  WS02004402WS02004403        0.01      0.01      0.01      0.02         0.01
  WS02004404WS02004405        0.01      0.01      0.01      3.67         0.01
  WS02004405WS02004406        0.01      0.01      0.01      0.98         0.01
  WS02006109WS02006110        1.05      1.05      2.75      1.18         0.01
  WS02006110WS02006113        0.01      0.01      2.73      0.01         0.01
  WS02006111WS02006112        0.01      0.01      2.87      0.01         0.01
  WS02006112WS02006115        0.01      0.01      1.08      0.01         0.01
  WS02006113WS02006111        0.01      0.01      0.01      0.01         0.01
  WS02006115WS02006116        0.01      0.01      0.01      0.01         0.01
  WS02006116WS02004401        0.01      0.01      0.01      0.02         0.01
  WS02006228WS02006109        2.70      2.75      2.71      3.09         2.69
  WS02006229WS02006228        2.69      2.71      2.69      2.92         2.68
  WS02006230WS02006229        2.78      2.87      2.80      4.05         2.78
  WS02006231WS02006230        1.08      1.08      1.27      3.70         0.01
  WS02006232WS02006231        1.21      1.21      2.74      1.31         0.01
  WS02006234WS02006232        2.63      2.63      2.74      1.28         1.27
  WS02006235WS02006234        1.75      1.76      2.64      3.50         0.02
  WS02006238WS02006235        2.66      2.66      2.73      0.01         0.01
  WS02006239WS02006238        2.69      2.71      2.70      2.74         2.34
  WS02006240WS02006239        2.61      2.65      2.65      2.73         2.23
  WS02006242WS02006240        2.62      2.63      2.74      2.89         0.01
  WS02006243WS02006242        2.63      2.63      2.67      0.01         0.06
  WS02006245WS02006243        2.62      2.62      2.62      1.60         1.68
  WS02006247WS02006245        2.62      2.63      2.62      3.40         2.60
  WS02006248WS02006247        2.61      2.61      2.62      0.01         0.06
  WS02006249WS02006248        2.60      2.60      2.60      3.35         0.01
  WS02006251WS02006249        2.60      2.60      2.60      2.78         2.50
  WS02006252WS02006251        2.85      2.85      2.88      2.86         0.01
  WS02006256WS02006235        3.54      3.59      6.57      1.52         0.01
  YS02001580YS02001583        1.83      1.83      1.88      0.01         0.01
  YS02001583YS02001586        1.84      1.84      1.95      0.01         0.01
  YS02001586YS02001590        1.96      1.96      2.03      0.01         0.01
  YS02001590YS02001593        2.03      2.03      2.05      2.06         0.01
  YS02001593YS02001596        2.04      2.04      2.13      0.01         0.01
  YS02001596YS02001600        2.17      2.17      2.24      0.01         0.01
  YS02001600YS02001601        2.29      2.29      2.47      0.01         0.01
  YS02001601YS02001602        2.41      2.41      2.49      2.21         0.01
  YS02001602YS02001605        2.38      2.38      2.41      3.05         0.01
  YS02001605YS02001607        2.36      2.38      2.37      2.36         2.28
  YS02001607YS02001610        2.04      2.04      2.06      0.01         0.01
  YS02001610YS02001613        2.04      2.04      2.06      0.01         0.01
  YS02001613YS02001616        1.99      1.99      2.04      0.01         0.01
  YS02001616YS02001619        1.98      1.98      1.99      0.74         0.66
  YS02001619YS02001622        1.98      1.98      1.98      1.94         1.86
  YS02001622YS02001625        1.98      1.98      2.16      0.01         0.01
  YS02001625YS02001629        1.92      1.92      2.16      0.01         0.01
  YS02001629YS02163301        2.17      2.17      2.19      0.67         0.21
  YS02001633YS02163601        2.22      2.22      2.26      0.33         0.35
  YS02001641YS02001644        2.17      2.19      2.17      2.52         2.09
  YS02001644YS02001647        1.87      1.87      2.17      0.01         0.01
  YS02001647YS02001649        1.87      1.87      2.02      0.01         0.01
  YS02001649YS02001757        2.00      2.02      2.08      0.34         0.18
  YS02001652YS02001649        1.83      1.83      2.02      0.26         0.26
  YS02001655YS02001652        1.61      1.61      1.81      0.26         0.26
  YS02001658YS02001655        1.30      1.30      1.61      0.21         0.21
  YS02001661YS02001658        0.72      0.72      1.30      0.19         0.19
  YS02001664YS02001661        0.41      0.41      0.86      0.01         0.01
  YS02001745YS02001748        0.44      0.44      1.17      0.05         0.05
  YS02001748YS02001751        1.26      1.26      1.50      0.11         0.11
  YS02001751YS02001754        1.50      1.50      1.73      0.10         0.10
  YS02001754YS02001757        1.78      1.78      2.08      0.01         0.01
  YS02001757CaochengTiaoxuchi        2.03      2.08      2.49      1.13         0.94
  YS02001759YS02001757        1.99      1.99      2.08      0.09         0.02
  YS02001762YS02001759        1.95      1.95      1.99      0.01         0.01
  YS02001765YS02001762        1.91      1.91      1.95      0.01         0.01
  YS02001767YS02001765        1.89      1.89      1.91      0.01         0.01
  YS02001770YS02001767        1.88      1.89      1.89      1.60         0.96
  YS02001774YS02001770        1.86      1.86      1.94      0.01         0.01
  YS02001779YS02001774        1.71      1.71      1.94      0.01         0.01
  YS02001783YS02001784        1.05      1.09      1.05      1.30         1.05
  YS02001784YS02001785        0.90      1.05      0.90      1.73         0.90
  YS02001786YS02001788        0.01      0.90      0.01      1.55         0.01
  YS02001790YS02001791        0.01      0.01      0.01      1.03         0.01
  YS02001793JiankangQianchi        0.01      0.01      5.26      0.01         0.01
  YS02001882YS02001884        1.00      1.00      1.02      0.01         0.01
  YS02001884YS02001887        1.05      1.05      1.07      0.01         0.01
  YS02001887YS02001890        1.09      1.09      1.11      0.36         0.01
  YS02001890YS02001895        0.98      0.98      1.13      0.01         0.01
  YS02001895YS02001898        0.97      0.97      0.98      0.01         0.01
  YS02001898YS02001901        0.99      0.99      1.05      0.01         0.01
  YS02001901YS02001904        1.04      1.04      1.05      0.01         0.01
  YS02001904YS02001907        1.04      1.04      1.51      0.01         0.01
  YS02001907YS02006553        1.74      1.74      1.77      0.09         0.10
  YS02001910YS02001907        1.13      1.13      1.44      0.26         0.27
  YS02001915YS02001910        1.00      1.00      1.13      0.01         0.02
  YS02001918YS02001915        0.88      0.88      1.00      0.01         0.01
  YS02001920YS02001918        0.88      0.88      0.90      0.01         0.01
  YS02001923YS02001920        0.81      0.81      0.90      0.01         0.01
  YS02001926YS02001923        0.39      0.39      0.42      0.21         0.01
  YS02001929YS02001926        0.28      0.29      0.42      0.01         0.01
  YS02006553YS02006556        1.26      1.26      1.50      0.01         0.02
  YS02006556YS02006558        1.34      1.34      1.55      0.01         0.01
  YS02006558YS02006561        0.92      1.24      0.92      1.68         0.92
  YS02006561YS02001783        0.84      0.84      1.09      0.01         0.01
  YS02163301YS02001633        2.19      2.19      2.23      0.36         0.01
  YS02163601YS02164001        2.19      2.19      2.26      0.24         0.01
  YS02164001YS02001641        2.18      2.19      2.19      1.10         1.08
  
  
  ***************
  Pumping Summary
  ***************
  
  ---------------------------------------------------------------------------------------------------------
                                                  Min       Avg       Max     Total     Power    % Time Off
                        Percent   Number of      Flow      Flow      Flow    Volume     Usage    Pump Curve
  Pump                 Utilized   Start-Ups       LPS       LPS       LPS  10^6 ltr     Kw-hr    Low   High
  ---------------------------------------------------------------------------------------------------------
  CC-R1                   39.45          19      0.00    683.00    683.00     7.761    149.53    0.0   61.3
  CC-R2                   35.38          20      0.00    683.00    683.00     6.960    136.04    0.0   55.5
  CC-S1                   40.06          16      0.00    200.00    200.00     2.307     10.96    0.0   34.9
  CC-S2                   39.55          21      0.00    200.00    200.00     2.278     10.83    0.0   35.3
  JK-R1                    9.60          22      0.00   1000.00   1000.00     2.763     28.06    0.0    0.0
  JK-R2                    7.23          17      0.00   1000.00   1000.00     2.082     19.58    0.0    0.0
  JK-S                    18.81          27      0.00    300.00    300.00     1.625     26.15    0.0    0.0
  

  Analysis begun on:  Thu Sep  7 18:05:12 2023
  Analysis ended on:  Thu Sep  7 18:05:23 2023
  Total elapsed time: 00:00:11