
  OWA STORM WATER MANAGEMENT MODEL - VERSION v5.1.14 (OWA 2022-07-31)
  --------------------------------------------------------------

  WARNING 04: minimum elevation drop used for Conduit WS02004404WS02004405
  WARNING 03: negative offset ignored for Link YS02001904YS02001907
  
  *********************************************************
  NOTE: The summary statistics displayed in this report are
  based on results found at every computational time step,  
  not just on results from each reporting time step.
  *********************************************************
  
  ****************
  Analysis Options
  ****************
  Flow Units ............... LPS
  Process Models:
    Rainfall/Runoff ........ YES
    RDII ................... NO
    Snowmelt ............... NO
    Groundwater ............ NO
    Flow Routing ........... YES
    Ponding Allowed ........ NO
    Water Quality .......... NO
  Infiltration Method ...... HORTON
  Flow Routing Method ...... DYNWAVE
  Surcharge Method ......... EXTRAN
  Starting Date ............ 08/28/2015 08:00:00
  Ending Date .............. 08/28/2015 16:00:00
  Antecedent Dry Days ...... 8.0
  Report Time Step ......... 00:01:00
  Wet Time Step ............ 00:01:00
  Dry Time Step ............ 00:01:00
  Routing Time Step ........ 30.00 sec
  Variable Time Step ....... YES
  Maximum Trials ........... 8
  Number of Threads ........ 1
  Head Tolerance ........... 0.001500 m
  
  
  **************************        Volume         Depth
  Runoff Quantity Continuity     hectare-m            mm
  **************************     ---------       -------
  Total Precipitation ......         1.436        43.293
  Evaporation Loss .........         0.000         0.000
  Infiltration Loss ........         0.095         2.878
  Surface Runoff ...........         1.308        39.429
  Final Storage ............         0.033         0.994
  Continuity Error (%) .....        -0.017
  
  
  **************************        Volume        Volume
  Flow Routing Continuity        hectare-m      10^6 ltr
  **************************     ---------     ---------
  Dry Weather Inflow .......         0.000         0.000
  Wet Weather Inflow .......         1.308        13.076
  Groundwater Inflow .......         0.000         0.000
  RDII Inflow ..............         0.000         0.000
  External Inflow ..........         0.083         0.834
  External Outflow .........         1.298        12.976
  Flooding Loss ............         0.193         1.928
  Evaporation Loss .........         0.000         0.000
  Exfiltration Loss ........         0.000         0.000
  Initial Stored Volume ....         0.243         2.431
  Final Stored Volume ......         0.178         1.780
  Continuity Error (%) .....        -2.105
  
  
  *************************
  Highest Continuity Errors
  *************************
  Node YS02001884 (4.34%)
  Node YS02001583 (-4.04%)
  Node WS02006256 (-2.88%)
  Node YS02001774 (1.72%)
  Node WS02006110 (-1.60%)
  
  
  ***************************
  Time-Step Critical Elements
  ***************************
  Link WS02006252WS02006251 (30.71%)
  Link WS02004404WS02004405 (20.14%)
  Link WS02006238WS02006235 (19.20%)
  Link WS02003066WSF200 (6.65%)
  Link YS02001791YS02001793 (6.15%)
  
  
  ********************************
  Highest Flow Instability Indexes
  ********************************
  Link WS02006113WS02006111 (34)
  Link WS02004404WS02004405 (18)
  Link WS02006256WS02006235 (16)
  Link WS02004403WS02004404 (15)
  Link WS02006238WS02006235 (15)
  
  
  *************************
  Routing Time Step Summary
  *************************
  Minimum Time Step           :     0.01 sec
  Average Time Step           :     2.67 sec
  Maximum Time Step           :    30.00 sec
  Percent in Steady State     :    -0.00
  Average Iterations per Step :     3.24
  Percent Not Converging      :    13.70
  
  
  ***************************
  Subcatchment Runoff Summary
  ***************************
  
  ------------------------------------------------------------------------------------------------------------------------------
                            Total      Total      Total      Total     Imperv       Perv      Total       Total     Peak  Runoff
                           Precip      Runon       Evap      Infil     Runoff     Runoff     Runoff      Runoff   Runoff   Coeff
  Subcatchment                 mm         mm         mm         mm         mm         mm         mm    10^6 ltr      LPS
  ------------------------------------------------------------------------------------------------------------------------------
  sub60                     43.29       0.00       0.00       1.74      36.89       3.46      40.35        0.53   336.19   0.932
  sub61                     43.29       0.00       0.00       2.52      34.80       4.84      39.64        0.73   465.03   0.916
  sub62                     43.29       0.00       0.00       1.16      38.54       2.31      40.84        1.12   658.62   0.943
  sub63                     43.29       0.00       0.00       4.67      29.76       7.89      37.66        0.85   517.85   0.870
  sub64                     43.29       0.00       0.00       2.36      35.59       4.14      39.73        0.95   531.82   0.918
  sub65                     43.29       0.00       0.00       2.04      36.41       3.59      40.00        1.10   593.11   0.924
  sub66                     43.29       0.00       0.00       5.73      29.66       6.83      36.49        1.70   763.35   0.843
  sub67                     43.29       0.00       0.00       1.12      38.58       2.35      40.93        0.76   510.15   0.945
  sub68                     43.29       0.00       0.00       2.09      36.04       3.97      40.01        1.10   673.24   0.924
  sub69                     43.29       0.00       0.00       1.85      36.68       4.65      41.33        1.53   791.44   0.955
  sub70                     43.29       0.00       0.00       6.09      28.41       8.63      37.04        1.07   431.21   0.856
  sub71                     43.29       0.00       0.00       1.19      38.50       2.27      40.77        1.07   577.50   0.942
  sub72                     43.29       0.00       0.00       1.06      38.86       1.97      40.83        0.56   278.98   0.943
  
  
  ******************
  Node Depth Summary
  ******************
  
  ---------------------------------------------------------------------------------
                                 Average  Maximum  Maximum  Time of Max    Reported
                                   Depth    Depth      HGL   Occurrence   Max Depth
  Node                 Type       Meters   Meters   Meters  days hr:min      Meters
  ---------------------------------------------------------------------------------
  WS02003060           JUNCTION     0.20     0.38     5.31     0  02:48        0.38
  WS02003066           JUNCTION     0.17     0.29     5.85     0  02:48        0.29
  WS02003067           JUNCTION     0.47     0.70     6.02     0  02:48        0.70
  WS02003069           JUNCTION     0.23     0.43     5.01     0  02:49        0.42
  WS02003072           JUNCTION     0.28     0.50     4.87     0  02:49        0.49
  WS02003073           JUNCTION     0.16     0.29     4.36     0  02:50        0.29
  WS02004401           JUNCTION     0.56     0.87     6.87     0  02:45        0.87
  WS02004402           JUNCTION     0.60     0.90     6.86     0  02:26        0.90
  WS02004403           JUNCTION     0.62     0.91     6.84     0  02:45        0.91
  WS02004404           JUNCTION     0.70     1.00     6.85     0  02:26        0.99
  WS02004405           JUNCTION     0.69     0.96     6.81     0  02:25        0.96
  WS02004406           JUNCTION     0.70     0.95     6.78     0  02:26        0.95
  WS02004407           JUNCTION     0.16     0.29     6.61     0  02:26        0.29
  WS02004409           JUNCTION     0.35     0.66     6.43     0  02:46        0.66
  WS02004410           JUNCTION     0.37     0.67     6.39     0  02:47        0.67
  WS02004411           JUNCTION     0.40     0.68     6.36     0  02:47        0.68
  WS02004412           JUNCTION     0.42     0.69     6.33     0  02:47        0.69
  WS02004413           JUNCTION     0.58     0.85     6.32     0  02:48        0.85
  WS02006109           JUNCTION     0.59     1.61     8.23     0  02:38        1.00
  WS02006110           JUNCTION     0.60     1.81     8.40     0  02:38        0.96
  WS02006111           JUNCTION     0.15     1.67     8.37     0  00:00        0.56
  WS02006112           JUNCTION     0.71     2.68     8.56     0  00:00        1.29
  WS02006113           JUNCTION     0.23     1.50     8.40     0  00:00        0.46
  WS02006115           JUNCTION     0.44     1.69     7.83     0  00:00        0.86
  WS02006116           JUNCTION     0.53     1.11     7.15     0  00:00        0.85
  WS02006228           JUNCTION     0.58     1.64     8.29     0  00:00        1.04
  WS02006229           JUNCTION     0.55     1.42     8.11     0  02:30        1.08
  WS02006230           JUNCTION     0.54     1.72     8.47     0  02:30        1.26
  WS02006231           JUNCTION     0.35     1.36     8.48     0  02:30        0.96
  WS02006232           JUNCTION     0.47     1.50     8.54     0  02:30        1.15
  WS02006234           JUNCTION     0.39     1.47     8.62     0  02:30        1.20
  WS02006235           JUNCTION     0.42     1.51     8.68     0  02:30        1.31
  WS02006238           JUNCTION     0.45     1.55     8.69     0  02:30        1.34
  WS02006239           JUNCTION     0.41     1.50     8.71     0  02:30        1.33
  WS02006240           JUNCTION     0.38     1.42     8.72     0  02:30        1.29
  WS02006242           JUNCTION     0.44     1.45     8.72     0  02:30        1.35
  WS02006243           JUNCTION     0.36     1.30     8.72     0  02:30        1.23
  WS02006245           JUNCTION     0.37     1.24     8.72     0  02:29        1.18
  WS02006247           JUNCTION     0.39     1.22     8.72     0  02:29        1.18
  WS02006248           JUNCTION     0.35     1.10     8.69     0  02:16        1.10
  WS02006249           JUNCTION     0.38     1.09     8.69     0  02:17        1.09
  WS02006251           JUNCTION     0.38     1.41     9.08     0  02:17        1.13
  WS02006252           JUNCTION     0.28     1.50     9.74     0  00:15        0.69
  WS02006256           JUNCTION     0.87     2.35     9.28     0  00:15        2.35
  WSF200               JUNCTION     0.14     0.29     5.52     0  02:48        0.29
  YS02001580           JUNCTION     0.08     1.05     9.59     0  02:08        0.78
  YS02001583           JUNCTION     0.11     1.14     9.64     0  02:08        0.82
  YS02001586           JUNCTION     0.19     1.13     9.30     0  02:08        1.13
  YS02001590           JUNCTION     0.28     1.40     9.26     0  02:16        1.40
  YS02001593           JUNCTION     0.22     1.30     9.16     0  02:10        1.30
  YS02001596           JUNCTION     0.30     1.80     9.22     0  02:16        1.80
  YS02001600           JUNCTION     0.36     1.86     8.99     0  02:10        1.86
  YS02001601           JUNCTION     0.54     2.06     8.90     0  02:08        2.06
  YS02001602           JUNCTION     0.46     1.87     8.77     0  02:08        1.87
  YS02001605           JUNCTION     0.42     1.78     8.68     0  02:08        1.77
  YS02001607           JUNCTION     0.41     1.65     8.50     0  02:08        1.65
  YS02001610           JUNCTION     0.44     1.68     8.48     0  02:08        1.68
  YS02001613           JUNCTION     0.41     1.70     8.54     0  02:08        1.65
  YS02001616           JUNCTION     0.35     1.61     8.52     0  02:08        1.59
  YS02001619           JUNCTION     0.33     1.61     8.54     0  02:08        1.61
  YS02001622           JUNCTION     0.31     1.61     8.51     0  02:08        1.58
  YS02001625           JUNCTION     0.54     1.78     8.38     0  02:08        1.78
  YS02001629           JUNCTION     0.43     1.85     8.40     0  02:12        1.85
  YS02001633           JUNCTION     0.49     2.06     8.51     0  02:13        1.98
  YS02001641           JUNCTION     0.47     2.10     8.54     0  02:16        2.10
  YS02001644           JUNCTION     0.46     1.92     8.35     0  02:12        1.92
  YS02001647           JUNCTION     0.26     1.90     8.51     0  02:16        1.90
  YS02001649           JUNCTION     0.30     2.05     8.44     0  02:16        2.05
  YS02001652           JUNCTION     0.19     2.16     8.76     0  02:12        2.14
  YS02001655           JUNCTION     0.14     2.20     9.05     0  02:12        2.20
  YS02001658           JUNCTION     0.10     2.30     9.44     0  02:13        1.92
  YS02001661           JUNCTION     0.12     0.79     8.19     0  02:14        0.78
  YS02001664           JUNCTION     0.05     0.27     8.20     0  02:13        0.27
  YS02001745           JUNCTION     0.05     0.55     8.07     0  02:14        0.51
  YS02001748           JUNCTION     0.08     0.99     8.07     0  02:14        0.87
  YS02001751           JUNCTION     0.11     1.81     8.69     0  02:13        1.11
  YS02001754           JUNCTION     0.16     2.20     8.81     0  02:16        2.20
  YS02001757           JUNCTION     0.30     2.21     8.47     0  02:16        2.21
  YS02001759           JUNCTION     0.24     2.21     8.57     0  02:16        2.21
  YS02001762           JUNCTION     0.23     2.15     8.55     0  02:16        2.15
  YS02001765           JUNCTION     0.22     2.10     8.55     0  02:16        2.10
  YS02001767           JUNCTION     0.22     1.89     8.38     0  02:16        1.89
  YS02001770           JUNCTION     0.23     1.91     8.41     0  02:12        1.65
  YS02001774           JUNCTION     0.29     1.98     8.41     0  02:12        1.73
  YS02001779           JUNCTION     0.14     1.68     8.37     0  02:12        1.47
  YS02001783           JUNCTION     0.23     1.39     7.53     0  02:16        1.39
  YS02001784           JUNCTION     0.23     1.23     7.30     0  02:11        1.14
  YS02001786           JUNCTION     0.20     0.94     6.97     0  02:11        0.87
  YS02001788           JUNCTION     0.14     0.62     6.60     0  02:12        0.62
  YS02001790           JUNCTION     0.17     0.72     6.36     0  02:17        0.71
  YS02001791           JUNCTION     0.11     0.44     5.91     0  02:17        0.43
  YS02001793           JUNCTION     0.05     0.30     5.13     0  02:15        0.25
  YS02001882           JUNCTION     0.28     1.71     8.42     0  02:16        1.67
  YS02001884           JUNCTION     0.36     1.79     8.40     0  02:16        1.75
  YS02001887           JUNCTION     0.43     1.84     8.38     0  02:12        1.84
  YS02001890           JUNCTION     0.45     1.81     8.32     0  02:11        1.81
  YS02001895           JUNCTION     0.26     1.58     8.33     0  02:11        1.57
  YS02001898           JUNCTION     0.26     1.60     8.33     0  02:11        1.59
  YS02001901           JUNCTION     0.36     1.72     8.33     0  02:16        1.72
  YS02001904           JUNCTION     0.34     1.65     8.28     0  02:11        1.64
  YS02001907           JUNCTION     0.61     1.96     8.25     0  02:11        1.96
  YS02001910           JUNCTION     0.44     1.96     8.47     0  02:12        1.83
  YS02001915           JUNCTION     0.28     1.91     8.62     0  02:12        1.68
  YS02001918           JUNCTION     0.15     1.81     8.88     0  02:12        1.36
  YS02001920           JUNCTION     0.21     2.14     9.15     0  02:12        1.47
  YS02001923           JUNCTION     0.12     2.03     9.29     0  02:12        1.23
  YS02001926           JUNCTION     0.15     1.90     9.35     0  02:12        1.05
  YS02001929           JUNCTION     0.08     1.78     9.47     0  02:12        0.82
  YS02006553           JUNCTION     0.61     2.04     8.33     0  02:12        2.04
  YS02006556           JUNCTION     0.59     2.07     8.39     0  02:12        2.07
  YS02006558           JUNCTION     0.63     2.12     8.38     0  02:12        2.12
  YS02006561           JUNCTION     0.14     1.02     7.68     0  02:11        0.88
  YS02163301           JUNCTION     0.45     2.03     8.55     0  02:16        2.03
  YS02163601           JUNCTION     0.52     2.08     8.48     0  02:12        2.08
  YS02164001           JUNCTION     0.46     2.10     8.56     0  02:16        2.10
  CC-1                 OUTFALL      0.00     0.00     0.00     0  00:00        0.00
  CC-2                 OUTFALL      0.00     0.00     0.00     0  00:00        0.00
  JK-1                 OUTFALL      0.00     0.00     0.00     0  00:00        0.00
  JK-2                 OUTFALL      0.00     0.00     0.00     0  00:00        0.00
  WSC                  OUTFALL      0.16     0.29     0.96     0  02:50        0.29
  CC-storage           STORAGE      0.72     1.40     6.90     0  02:34        1.40
  JK-storage           STORAGE      1.47     4.21     5.01     0  02:14        4.20
  
  
  *******************
  Node Inflow Summary
  *******************
  
  -------------------------------------------------------------------------------------------------
                                  Maximum  Maximum                  Lateral       Total        Flow
                                  Lateral    Total  Time of Max      Inflow      Inflow     Balance
                                   Inflow   Inflow   Occurrence      Volume      Volume       Error
  Node                 Type           LPS      LPS  days hr:min    10^6 ltr    10^6 ltr     Percent
  -------------------------------------------------------------------------------------------------
  WS02003060           JUNCTION     16.53   543.84     0  02:48       0.476        3.93       0.054
  WS02003066           JUNCTION      0.00   526.86     0  02:48           0        3.46       0.037
  WS02003067           JUNCTION      0.00   526.68     0  02:48           0        3.46       0.116
  WS02003069           JUNCTION      0.32   543.95     0  02:49     0.00922        3.94       0.090
  WS02003072           JUNCTION      0.00   543.29     0  02:49           0        3.94       0.162
  WS02003073           JUNCTION      1.82   544.67     0  02:50      0.0524        3.98       0.127
  WS02004401           JUNCTION      0.00  1786.04     0  00:00           0        3.57       0.300
  WS02004402           JUNCTION      0.00  1248.69     0  00:01           0        3.56       0.302
  WS02004403           JUNCTION      0.00   929.44     0  00:01           0        3.55       0.297
  WS02004404           JUNCTION      0.00   877.02     0  00:01           0        3.54       0.251
  WS02004405           JUNCTION      0.00   827.31     0  00:01           0        3.53       0.322
  WS02004406           JUNCTION      0.00   768.45     0  00:02           0        3.52       0.603
  WS02004407           JUNCTION      0.00   532.55     0  02:26           0         3.5       0.025
  WS02004409           JUNCTION      0.00   532.15     0  02:26           0         3.5       0.069
  WS02004410           JUNCTION      0.00   530.41     0  02:46           0        3.49       0.119
  WS02004411           JUNCTION      0.00   528.87     0  02:47           0        3.49       0.153
  WS02004412           JUNCTION      0.00   527.69     0  02:47           0        3.48       0.203
  WS02004413           JUNCTION      0.00   527.27     0  02:47           0        3.48       0.375
  WS02006109           JUNCTION      0.00  1446.81     0  00:00           0        3.46      -0.200
  WS02006110           JUNCTION      0.00   563.15     0  02:30           0        3.44      -1.575
  WS02006111           JUNCTION      0.00  1180.41     0  00:00           0         3.5      -1.216
  WS02006112           JUNCTION      0.00  2307.30     0  00:00           0        3.54      -0.001
  WS02006113           JUNCTION      0.00   570.89     0  02:30           0        3.46      -1.095
  WS02006115           JUNCTION      0.00   953.54     0  00:00           0        3.51      -1.019
  WS02006116           JUNCTION      0.00  1264.47     0  00:00           0        3.55      -0.674
  WS02006228           JUNCTION      0.00   869.18     0  00:00           0        3.45      -0.058
  WS02006229           JUNCTION      0.00   562.92     0  02:30           0        3.43      -0.058
  WS02006230           JUNCTION     10.28   706.67     0  00:00       0.296        3.42       0.007
  WS02006231           JUNCTION      0.00   572.39     0  02:38           0        3.12       0.025
  WS02006232           JUNCTION      0.00   571.54     0  02:38           0        3.11       0.145
  WS02006234           JUNCTION      0.00   572.69     0  01:59           0         3.1      -0.280
  WS02006235           JUNCTION      0.00   577.51     0  01:58           0        3.18       0.279
  WS02006238           JUNCTION      0.00   426.70     0  02:35           0         2.5      -0.138
  WS02006239           JUNCTION      0.00   425.78     0  03:10           0        2.44      -0.207
  WS02006240           JUNCTION      0.00   423.06     0  03:10           0        2.41      -0.042
  WS02006242           JUNCTION      0.00   422.72     0  03:10           0         2.4       0.019
  WS02006243           JUNCTION      0.00   421.95     0  03:10           0        2.38      -0.458
  WS02006245           JUNCTION      0.00   422.09     0  03:10           0         2.4       0.551
  WS02006247           JUNCTION      0.00   421.48     0  03:10           0         2.4       0.012
  WS02006248           JUNCTION      0.00   421.73     0  03:10           0        2.39      -0.080
  WS02006249           JUNCTION      0.00   483.61     0  02:05           0        2.52       0.789
  WS02006251           JUNCTION      0.00   407.86     0  02:17           0        2.53       0.016
  WS02006252           JUNCTION      0.00   400.00     0  00:15           0        2.51      -0.480
  WS02006256           JUNCTION      0.00   300.00     0  00:15           0       0.966      -2.796
  WSF200               JUNCTION      0.00   526.97     0  02:48           0        3.46       0.011
  YS02001580           JUNCTION      0.00   113.75     0  02:08           0     0.00386      -5.947
  YS02001583           JUNCTION      0.00   165.75     0  02:08           0       0.015      -3.879
  YS02001586           JUNCTION    431.21   431.23     0  02:16        1.07        1.08       0.110
  YS02001590           JUNCTION      0.00   318.51     0  02:16           0        1.01      -0.031
  YS02001593           JUNCTION      0.00   318.26     0  02:16           0        1.01       0.020
  YS02001596           JUNCTION      0.00   318.19     0  02:18           0        1.01      -0.007
  YS02001600           JUNCTION      0.00   318.93     0  02:16           0        1.01       0.008
  YS02001601           JUNCTION    791.44  1109.08     0  02:14        1.53        2.54       0.030
  YS02001602           JUNCTION      0.00   518.05     0  02:08           0        1.91       0.020
  YS02001605           JUNCTION      0.00   518.01     0  02:08           0        1.85       0.021
  YS02001607           JUNCTION      0.00   517.59     0  02:08           0        1.85       0.103
  YS02001610           JUNCTION      0.00   516.14     0  02:08           0        1.84       0.115
  YS02001613           JUNCTION      0.00   516.62     0  02:08           0        1.68       0.092
  YS02001616           JUNCTION      0.00   516.93     0  02:08           0        1.68       0.023
  YS02001619           JUNCTION    763.35   934.11     0  02:11         1.7        3.38      -0.006
  YS02001622           JUNCTION      0.00   932.41     0  02:11           0        3.38      -0.002
  YS02001625           JUNCTION      0.00   932.50     0  02:11           0        3.38       0.256
  YS02001629           JUNCTION      0.00   932.74     0  02:11           0        3.12       0.020
  YS02001633           JUNCTION    593.11  1403.77     0  02:11         1.1        4.22       0.076
  YS02001641           JUNCTION      0.00  1397.53     0  02:11           0        4.22       0.063
  YS02001644           JUNCTION    531.82  1829.90     0  02:11       0.954        5.17       0.061
  YS02001647           JUNCTION      0.00  1833.21     0  02:11           0        5.16       0.005
  YS02001649           JUNCTION      0.00  2094.74     0  02:11           0        6.01      -0.001
  YS02001652           JUNCTION      0.00   593.00     0  02:15           0       0.854      -0.121
  YS02001655           JUNCTION      0.00   591.97     0  02:15           0       0.854       0.031
  YS02001658           JUNCTION      0.00   687.51     0  02:13           0       0.854      -0.027
  YS02001661           JUNCTION      0.00   524.81     0  02:13           0       0.855       0.042
  YS02001664           JUNCTION    517.85   517.85     0  02:14       0.855       0.855      -0.010
  YS02001745           JUNCTION    336.19   336.19     0  02:14        0.53        0.53       0.270
  YS02001748           JUNCTION      0.00   559.06     0  02:15           0       0.529      -0.386
  YS02001751           JUNCTION      0.00   488.35     0  02:16           0       0.534       0.097
  YS02001754           JUNCTION      0.00   400.33     0  02:16           0       0.536      -0.253
  YS02001757           JUNCTION      0.00  3273.73     0  02:15           0        8.39       0.057
  YS02001759           JUNCTION    465.03  1140.60     0  02:13       0.727        1.84      -0.016
  YS02001762           JUNCTION      0.00   678.25     0  02:12           0        1.12      -0.027
  YS02001765           JUNCTION      0.00   672.99     0  02:12           0        1.12       0.001
  YS02001767           JUNCTION      0.00   670.28     0  02:12           0        1.12      -0.021
  YS02001770           JUNCTION    658.62   669.12     0  02:12        1.12        1.16       0.002
  YS02001774           JUNCTION      0.00   298.35     0  02:12           0      0.0614       1.751
  YS02001779           JUNCTION      0.00   300.89     0  02:12           0       0.019      -1.679
  YS02001783           JUNCTION      0.00  1154.02     0  02:12           0        3.09      -0.001
  YS02001784           JUNCTION      0.00  1153.80     0  02:12           0        3.09       0.002
  YS02001786           JUNCTION      0.00  1153.98     0  02:12           0        3.09       0.008
  YS02001788           JUNCTION      0.00  1154.99     0  02:12           0        3.09       0.002
  YS02001790           JUNCTION      0.00  1172.79     0  02:12           0        3.09       0.006
  YS02001791           JUNCTION      0.00  1271.64     0  02:20           0        3.09      -0.016
  YS02001793           JUNCTION      0.00  1231.42     0  02:17           0        3.09       0.004
  YS02001882           JUNCTION      0.00    59.61     0  02:10           0       0.013       3.956
  YS02001884           JUNCTION      0.00    78.59     0  02:09           0      0.0491       4.537
  YS02001887           JUNCTION    510.15   510.99     0  02:13       0.761       0.795       0.500
  YS02001890           JUNCTION      0.00   511.44     0  02:13           0       0.754       0.610
  YS02001895           JUNCTION      0.00   502.79     0  02:13           0       0.747       0.200
  YS02001898           JUNCTION      0.00   502.98     0  02:13           0       0.746      -0.009
  YS02001901           JUNCTION      0.00   503.00     0  02:13           0       0.746       0.358
  YS02001904           JUNCTION      0.00   502.86     0  02:13           0       0.747       0.329
  YS02001907           JUNCTION      0.00  1500.20     0  02:13           0        2.37       0.715
  YS02001910           JUNCTION      0.00  1004.55     0  02:13           0        1.62       0.388
  YS02001915           JUNCTION    577.50  1004.24     0  02:13        1.07        1.66       0.041
  YS02001918           JUNCTION      0.00   441.24     0  02:13           0       0.627       0.011
  YS02001920           JUNCTION      0.00   441.08     0  02:13           0        0.61       0.059
  YS02001923           JUNCTION      0.00   431.29     0  02:12           0       0.594      -0.082
  YS02001926           JUNCTION      0.00   589.95     0  02:12           0       0.575      -0.107
  YS02001929           JUNCTION    278.98   409.65     0  02:12       0.561       0.564       0.001
  YS02006553           JUNCTION      0.00   792.98     0  02:24           0        2.04       0.549
  YS02006556           JUNCTION      0.00   793.82     0  02:25           0        2.05       0.359
  YS02006558           JUNCTION    673.24  1177.12     0  02:11         1.1        3.12       0.103
  YS02006561           JUNCTION      0.00  1176.31     0  02:11           0        3.09      -0.010
  YS02163301           JUNCTION      0.00   931.79     0  02:10           0        3.12       0.049
  YS02163601           JUNCTION      0.00  1402.19     0  02:11           0        4.22       0.117
  YS02164001           JUNCTION      0.00  1400.49     0  02:11           0        4.21       0.053
  CC-1                 OUTFALL       0.00   683.00     0  00:15           0        3.89       0.000
  CC-2                 OUTFALL       0.00   683.00     0  00:10           0        2.86       0.000
  JK-1                 OUTFALL       0.00  1000.00     0  00:05           0        1.08       0.000
  JK-2                 OUTFALL       0.00  1000.00     0  00:05           0        1.18       0.000
  WSC                  OUTFALL       0.00   543.77     0  02:50           0        3.98       0.000
  CC-storage           STORAGE       0.00  3276.59     0  02:15           0        10.6      -0.291
  JK-storage           STORAGE       0.00  1246.55     0  02:21           0        3.24      -0.540
  
  
  **********************
  Node Surcharge Summary
  **********************
  
  Surcharging occurs when water rises above the top of the highest conduit.
  ---------------------------------------------------------------------
                                               Max. Height   Min. Depth
                                   Hours       Above Crown    Below Rim
  Node                 Type      Surcharged         Meters       Meters
  ---------------------------------------------------------------------
  WS02006109           JUNCTION        1.26          0.788        1.032
  WS02006110           JUNCTION        0.35          0.901        0.949
  WS02006111           JUNCTION        0.01          0.856        1.014
  WS02006112           JUNCTION        0.48          1.680        0.000
  WS02006113           JUNCTION        0.01          0.705        1.225
  WS02006115           JUNCTION        0.01          0.682        1.568
  WS02006116           JUNCTION        0.01          0.053        2.237
  WS02006228           JUNCTION        1.24          0.810        1.390
  WS02006229           JUNCTION        1.28          0.621        1.829
  WS02006230           JUNCTION        0.36          0.640        0.930
  WS02006231           JUNCTION        0.45          0.651        0.879
  WS02006232           JUNCTION        1.32          0.799        0.681
  WS02006234           JUNCTION        0.74          0.746        0.494
  WS02006235           JUNCTION        1.25          0.804        0.486
  WS02006238           JUNCTION        1.29          0.827        0.603
  WS02006239           JUNCTION        1.21          0.761        0.529
  WS02006240           JUNCTION        1.20          0.715        0.675
  WS02006242           JUNCTION        1.23          0.719        0.101
  WS02006243           JUNCTION        1.18          0.590        0.180
  WS02006245           JUNCTION        1.17          0.528        0.322
  WS02006247           JUNCTION        1.17          0.510        0.250
  WS02006248           JUNCTION        1.15          0.380        0.000
  WS02006249           JUNCTION        1.15          0.390        0.000
  WS02006251           JUNCTION        0.48          0.376        0.804
  WS02006252           JUNCTION        1.46          1.100        0.000
  WS02006256           JUNCTION        5.91          2.050        0.000
  YS02001580           JUNCTION        0.36          0.450        0.000
  YS02001583           JUNCTION        0.37          0.500        0.000
  YS02001586           JUNCTION        0.49          0.510        0.000
  YS02001590           JUNCTION        0.56          0.750        0.000
  YS02001593           JUNCTION        0.56          0.678        0.162
  YS02001596           JUNCTION        0.66          1.070        0.000
  YS02001600           JUNCTION        0.80          1.185        0.005
  YS02001601           JUNCTION        1.17          1.440        0.000
  YS02001602           JUNCTION        1.05          1.270        0.000
  YS02001605           JUNCTION        0.99          1.180        0.000
  YS02001607           JUNCTION        0.52          0.653        0.027
  YS02001610           JUNCTION        0.54          0.680        0.000
  YS02001613           JUNCTION        0.51          0.700        0.000
  YS02001616           JUNCTION        0.47          0.610        0.000
  YS02001619           JUNCTION        0.46          0.610        0.000
  YS02001622           JUNCTION        0.45          0.608        0.012
  YS02001625           JUNCTION        0.62          0.780        0.000
  YS02001629           JUNCTION        0.40          0.470        0.000
  YS02001633           JUNCTION        0.63          1.039        0.021
  YS02001641           JUNCTION        0.56          1.100        0.000
  YS02001644           JUNCTION        0.52          0.920        0.000
  YS02001647           JUNCTION        0.31          0.900        0.000
  YS02001649           JUNCTION        0.40          1.050        0.000
  YS02001652           JUNCTION        0.24          1.130        0.000
  YS02001655           JUNCTION        0.11          1.200        0.000
  YS02001658           JUNCTION        0.02          1.300        0.000
  YS02001751           JUNCTION        0.04          0.808        0.392
  YS02001754           JUNCTION        0.14          1.150        0.000
  YS02001757           JUNCTION        0.44          1.210        0.000
  YS02001759           JUNCTION        0.33          1.210        0.000
  YS02001762           JUNCTION        0.31          1.150        0.000
  YS02001765           JUNCTION        0.27          1.100        0.000
  YS02001767           JUNCTION        0.26          0.895        0.135
  YS02001770           JUNCTION        0.24          0.884        0.036
  YS02001774           JUNCTION        0.30          0.984        0.066
  YS02001779           JUNCTION        0.15          0.680        0.000
  YS02001783           JUNCTION        0.37          0.586        1.014
  YS02001784           JUNCTION        0.34          0.433        1.057
  YS02001786           JUNCTION        0.25          0.136        1.294
  YS02001882           JUNCTION        0.32          0.705        0.125
  YS02001884           JUNCTION        0.33          0.728        0.142
  YS02001887           JUNCTION        0.36          0.790        0.160
  YS02001890           JUNCTION        0.37          0.760        0.000
  YS02001895           JUNCTION        0.31          0.583        0.167
  YS02001898           JUNCTION        0.30          0.569        0.171
  YS02001901           JUNCTION        0.34          0.717        0.153
  YS02001904           JUNCTION        0.34          0.652        0.198
  YS02001907           JUNCTION        0.56          0.950        0.000
  YS02001910           JUNCTION        0.39          0.964        0.136
  YS02001915           JUNCTION        0.32          0.906        0.094
  YS02001918           JUNCTION        0.24          0.810        0.000
  YS02001920           JUNCTION        0.25          1.140        0.000
  YS02001923           JUNCTION        0.01          0.820        0.000
  YS02001926           JUNCTION        0.01          0.900        0.000
  YS02001929           JUNCTION        0.01          0.780        0.000
  YS02006553           JUNCTION        0.58          1.042        0.148
  YS02006556           JUNCTION        0.48          1.034        0.316
  YS02006558           JUNCTION        0.47          1.017        0.383
  YS02006561           JUNCTION        0.21          0.224        0.926
  YS02163301           JUNCTION        0.61          1.030        0.000
  YS02163601           JUNCTION        0.66          1.080        0.000
  YS02164001           JUNCTION        0.56          1.100        0.000
  
  
  *********************
  Node Flooding Summary
  *********************
  
  Flooding refers to all water that overflows a node, whether it ponds or not.
  --------------------------------------------------------------------------
                                                             Total   Maximum
                                 Maximum   Time of Max       Flood    Ponded
                        Hours       Rate    Occurrence      Volume     Depth
  Node                 Flooded       LPS   days hr:min    10^6 ltr    Meters
  --------------------------------------------------------------------------
  WS02006112              0.01   1405.86      0  00:00       0.047     0.000
  WS02006248              0.01     27.32      0  02:16       0.000     0.000
  WS02006249              0.46    108.24      0  02:17       0.110     0.000
  WS02006252              0.01    230.24      0  02:05       0.000     0.000
  WS02006256              0.89    289.74      0  03:10       0.285     0.000
  YS02001580              0.01     73.48      0  02:08       0.000     0.000
  YS02001583              0.01     45.73      0  02:08       0.000     0.000
  YS02001586              0.25    113.64      0  02:16       0.060     0.000
  YS02001590              0.01      0.06      0  02:16       0.000     0.000
  YS02001596              0.01      0.29      0  02:16       0.000     0.000
  YS02001601              0.43    711.23      0  02:14       0.632     0.000
  YS02001602              0.31     61.93      0  02:19       0.059     0.000
  YS02001605              0.01      2.65      0  02:08       0.000     0.000
  YS02001610              0.25    271.42      0  02:16       0.159     0.000
  YS02001613              0.01      7.01      0  02:08       0.000     0.000
  YS02001616              0.01     16.80      0  02:08       0.000     0.000
  YS02001619              0.01     18.72      0  02:08       0.000     0.000
  YS02001625              0.21    692.30      0  02:15       0.254     0.000
  YS02001629              0.02     18.58      0  02:13       0.001     0.000
  YS02001641              0.01      2.57      0  02:16       0.000     0.000
  YS02001644              0.01     38.02      0  02:16       0.000     0.000
  YS02001647              0.01      3.95      0  02:16       0.000     0.000
  YS02001649              0.01      2.25      0  02:16       0.000     0.000
  YS02001652              0.01     32.20      0  02:12       0.000     0.000
  YS02001655              0.01    303.77      0  02:12       0.000     0.000
  YS02001658              0.01    271.83      0  02:13       0.000     0.000
  YS02001754              0.01      2.55      0  02:16       0.000     0.000
  YS02001757              0.01      2.36      0  02:16       0.000     0.000
  YS02001759              0.01      0.74      0  02:16       0.000     0.000
  YS02001762              0.01      2.49      0  02:16       0.000     0.000
  YS02001765              0.01      3.73      0  02:16       0.000     0.000
  YS02001779              0.01    231.29      0  02:12       0.002     0.000
  YS02001890              0.05     69.10      0  02:16       0.003     0.000
  YS02001907              0.19   1016.00      0  02:13       0.331     0.000
  YS02001918              0.01    170.61      0  02:12       0.002     0.000
  YS02001920              0.01     36.09      0  02:12       0.000     0.000
  YS02001923              0.01     80.36      0  02:12       0.000     0.000
  YS02001926              0.01    263.53      0  02:12       0.001     0.000
  YS02001929              0.01     85.88      0  02:12       0.000     0.000
  YS02163301              0.01      0.87      0  02:16       0.000     0.000
  YS02163601              0.01      3.30      0  02:12       0.000     0.000
  YS02164001              0.01      1.14      0  02:16       0.000     0.000
  
  
  **********************
  Storage Volume Summary
  **********************
  
  --------------------------------------------------------------------------------------------------
                         Average     Avg  Evap Exfil       Maximum     Max    Time of Max    Maximum
                          Volume    Pcnt  Pcnt  Pcnt        Volume    Pcnt     Occurrence    Outflow
  Storage Unit           1000 m3    Full  Loss  Loss       1000 m3    Full    days hr:min        LPS
  --------------------------------------------------------------------------------------------------
  CC-storage               2.001      31     0     0         3.904      61       0  02:34    1766.00
  JK-storage               0.074      25     0     0         0.211      73       0  02:14    2300.00
  
  
  ***********************
  Outfall Loading Summary
  ***********************
  
  -----------------------------------------------------------
                         Flow       Avg       Max       Total
                         Freq      Flow      Flow      Volume
  Outfall Node           Pcnt       LPS       LPS    10^6 ltr
  -----------------------------------------------------------
  CC-1                  33.47    683.00    683.00       3.886
  CC-2                  28.78    683.00    683.00       2.858
  JK-1                   6.80   1000.00   1000.00       1.077
  JK-2                   7.64   1000.00   1000.00       1.177
  WSC                   99.99    201.85    543.77       3.979
  -----------------------------------------------------------
  System                35.33   3567.85    543.77      12.976
  
  
  ********************
  Link Flow Summary
  ********************
  
  -----------------------------------------------------------------------------
                                 Maximum  Time of Max   Maximum    Max/    Max/
                                  |Flow|   Occurrence   |Veloc|    Full    Full
  Link                 Type          LPS  days hr:min     m/sec    Flow   Depth
  -----------------------------------------------------------------------------
  1                    CONDUIT    543.77     0  02:50      2.81    0.19    0.29
  WS02003060WS02003069 CONDUIT    543.63     0  02:49      1.63    0.21    0.34
  WS02003066WSF200     CONDUIT    526.97     0  02:48      2.84    0.09    0.22
  WS02003067WS02003066 CONDUIT    526.86     0  02:48      1.19    0.17    0.41
  WS02003069WS02003072 CONDUIT    543.29     0  02:49      1.36    0.26    0.38
  WS02003072WS02003073 CONDUIT    542.85     0  02:50      1.43    1.17    0.37
  WS02004401WS02004402 CONDUIT   1248.69     0  00:01      2.52    1.50    0.88
  WS02004402WS02004403 CONDUIT    929.44     0  00:01      2.21    1.34    0.90
  WS02004403WS02004404 CONDUIT    877.02     0  00:01      2.01    0.63    0.95
  WS02004404WS02004405 CONDUIT    827.31     0  00:01      2.30    8.11    0.97
  WS02004405WS02004406 CONDUIT    768.45     0  00:02      2.19    1.52    0.96
  WS02004406WS02004407 CONDUIT    532.55     0  02:26      1.03    0.24    0.62
  WS02004407WS02004409 CONDUIT    532.15     0  02:26      2.06    0.19    0.48
  WS02004409WS02004410 CONDUIT    530.41     0  02:46      1.39    0.69    0.67
  WS02004410WS02004411 CONDUIT    528.87     0  02:47      1.32    0.72    0.68
  WS02004411WS02004412 CONDUIT    527.69     0  02:47      1.30    0.75    0.69
  WS02004412WS02004413 CONDUIT    527.27     0  02:47      1.26    0.35    0.77
  WS02004413WS02003067 CONDUIT    526.68     0  02:48      1.10    0.23    0.59
  WS02006109WS02006110 CONDUIT   1446.81     0  00:00      2.88    2.78    1.00
  WS02006110WS02006113 CONDUIT    570.89     0  02:30      1.39    0.52    1.00
  WS02006111WS02006112 CONDUIT   2307.30     0  00:00      9.18    1.10    1.00
  WS02006112WS02006115 CONDUIT    953.54     0  00:00      1.24    0.56    1.00
  WS02006113WS02006111 CONDUIT   1180.41     0  00:00      2.46    1.41    1.00
  WS02006115WS02006116 CONDUIT   1264.47     0  00:00      1.74    1.62    1.00
  WS02006116WS02004401 CONDUIT   1786.04     0  00:00      2.94    2.46    0.86
  WS02006228WS02006109 CONDUIT    869.18     0  00:00      1.91    3.80    1.00
  WS02006229WS02006228 CONDUIT    563.30     0  02:30      1.12    1.87    1.00
  WS02006230WS02006229 CONDUIT    696.39     0  00:00      1.89   15.50    1.00
  WS02006231WS02006230 CONDUIT    570.97     0  03:05      1.91    8.66    1.00
  WS02006232WS02006231 CONDUIT    572.39     0  02:38      1.80    1.20    1.00
  WS02006234WS02006232 CONDUIT    571.54     0  02:38      1.49    1.16    1.00
  WS02006235WS02006234 CONDUIT    572.69     0  01:59      1.60    6.04    1.00
  WS02006238WS02006235 CONDUIT    426.40     0  02:35      1.29    0.95    1.00
  WS02006239WS02006238 CONDUIT    426.70     0  02:35      1.11    1.37    1.00
  WS02006240WS02006239 CONDUIT    425.78     0  03:10      1.11    1.34    1.00
  WS02006242WS02006240 CONDUIT    423.06     0  03:10      1.10    1.68    1.00
  WS02006243WS02006242 CONDUIT    422.72     0  03:10      1.16    0.90    1.00
  WS02006245WS02006243 CONDUIT    421.95     0  03:10      1.39    1.25    1.00
  WS02006247WS02006245 CONDUIT    422.09     0  03:10      1.40    3.35    1.00
  WS02006248WS02006247 CONDUIT    421.48     0  03:10      1.43    0.92    1.00
  WS02006249WS02006248 CONDUIT    421.73     0  03:10      1.38    2.31    1.00
  WS02006251WS02006249 CONDUIT    483.61     0  02:05      1.97    1.39    1.00
  WS02006252WS02006251 CONDUIT    407.86     0  02:17     18.03    1.50    1.00
  WS02006256WS02006235 CONDUIT    287.74     0  01:50      4.17    3.05    1.00
  WSF200WS02003060     CONDUIT    527.31     0  02:48      2.05    0.12    0.28
  YS02001580YS02001583 CONDUIT    113.75     0  02:08      0.66    0.44    1.00
  YS02001583YS02001586 CONDUIT    161.56     0  02:08      0.67    0.24    1.00
  YS02001586YS02001590 CONDUIT    318.51     0  02:16      1.25    0.56    1.00
  YS02001590YS02001593 CONDUIT    318.26     0  02:16      1.13    2.00    1.00
  YS02001593YS02001596 CONDUIT    318.19     0  02:18      1.73    0.50    1.00
  YS02001596YS02001600 CONDUIT    318.93     0  02:16      1.21    0.62    1.00
  YS02001600YS02001601 CONDUIT    319.11     0  02:16      1.13    0.55    1.00
  YS02001601YS02001602 CONDUIT    518.05     0  02:08      1.83    1.87    1.00
  YS02001602YS02001605 CONDUIT    518.01     0  02:08      1.83   10.96    1.00
  YS02001605YS02001607 CONDUIT    517.59     0  02:08      1.83    2.84    1.00
  YS02001607YS02001610 CONDUIT    516.14     0  02:08      0.66    0.49    1.00
  YS02001610YS02001613 CONDUIT    516.62     0  02:08      0.66    0.60    1.00
  YS02001613YS02001616 CONDUIT    516.93     0  02:08      0.66    0.44    1.00
  YS02001616YS02001619 CONDUIT    503.31     0  02:08      0.67    0.87    1.00
  YS02001619YS02001622 CONDUIT    932.41     0  02:11      1.19    1.37    1.00
  YS02001622YS02001625 CONDUIT    932.50     0  02:11      1.19    0.50    1.00
  YS02001625YS02001629 CONDUIT    932.74     0  02:11      1.19    0.44    1.00
  YS02001629YS02163301 CONDUIT    931.79     0  02:10      1.19    1.15    1.00
  YS02001633YS02163601 CONDUIT   1402.19     0  02:11      1.79    1.47    1.00
  YS02001641YS02001644 CONDUIT   1396.99     0  02:11      1.78    4.52    1.00
  YS02001644YS02001647 CONDUIT   1833.21     0  02:11      2.34    1.08    1.00
  YS02001647YS02001649 CONDUIT   1849.21     0  02:11      2.37    0.98    1.00
  YS02001649YS02001757 CONDUIT   2099.66     0  02:11      2.68    1.27    1.00
  YS02001652YS02001649 CONDUIT    594.87     0  02:15      0.78    0.29    1.00
  YS02001655YS02001652 CONDUIT    593.00     0  02:15      1.30    0.29    1.00
  YS02001658YS02001655 CONDUIT    591.97     0  02:15      1.92    0.25    1.00
  YS02001661YS02001658 CONDUIT    687.51     0  02:13      2.35    0.27    0.86
  YS02001664YS02001661 CONDUIT    524.81     0  02:13      2.34    0.16    0.53
  YS02001745YS02001748 CONDUIT    559.06     0  02:15      2.23    0.22    0.65
  YS02001748YS02001751 CONDUIT    488.35     0  02:16      1.76    0.25    0.99
  YS02001751YS02001754 CONDUIT    400.33     0  02:16      1.46    0.19    1.00
  YS02001754YS02001757 CONDUIT    399.16     0  02:16      0.51    0.16    1.00
  YS02001757CaochengTiaoxuchi CONDUIT   3276.59     0  02:15      4.25    1.42    1.00
  YS02001759YS02001757 CONDUIT   1142.30     0  02:12      1.45    0.81    1.00
  YS02001762YS02001759 CONDUIT    682.89     0  02:12      0.87    0.79    1.00
  YS02001765YS02001762 CONDUIT    678.25     0  02:12      0.86    0.64    1.00
  YS02001767YS02001765 CONDUIT    672.99     0  02:12      0.86    0.85    1.00
  YS02001770YS02001767 CONDUIT    670.28     0  02:12      0.85    2.65    1.00
  YS02001774YS02001770 CONDUIT    298.35     0  02:12      0.38    0.19    1.00
  YS02001779YS02001774 CONDUIT    300.89     0  02:12      0.38    0.15    1.00
  YS02001783YS02001784 CONDUIT   1153.80     0  02:12      2.30    1.59    1.00
  YS02001784YS02001785 CONDUIT   1153.98     0  02:12      2.30    2.69    1.00
  YS02001786YS02001788 CONDUIT   1154.99     0  02:12      2.47    2.23    0.89
  YS02001788YS02001790 CONDUIT   1172.79     0  02:12      2.72    0.86    0.83
  YS02001790YS02001791 CONDUIT   1271.64     0  02:20      3.41    1.38    0.70
  YS02001791YS02001793 CONDUIT   1231.42     0  02:17      6.70    0.53    0.44
  YS02001793JiankangQianchi CONDUIT   1246.55     0  02:21      2.50    0.10    0.65
  YS02001882YS02001884 CONDUIT     59.61     0  02:10      0.13    0.07    1.00
  YS02001884YS02001887 CONDUIT     78.59     0  02:09      0.10    0.10    1.00
  YS02001887YS02001890 CONDUIT    511.44     0  02:13      0.65    0.88    1.00
  YS02001890YS02001895 CONDUIT    502.79     0  02:13      0.64    0.23    1.00
  YS02001895YS02001898 CONDUIT    502.98     0  02:13      0.64    0.87    1.00
  YS02001898YS02001901 CONDUIT    503.00     0  02:13      0.64    0.32    1.00
  YS02001901YS02001904 CONDUIT    502.86     0  02:13      0.64    0.78    1.00
  YS02001904YS02001907 CONDUIT    502.96     0  02:13      0.64    0.18    1.00
  YS02001907YS02006553 CONDUIT    792.98     0  02:24      0.88    0.93    1.00
  YS02001910YS02001907 CONDUIT   1004.30     0  02:13      1.28    0.57    1.00
  YS02001915YS02001910 CONDUIT   1004.55     0  02:13      1.28    0.50    1.00
  YS02001918YS02001915 CONDUIT    441.25     0  02:13      0.56    0.24    1.00
  YS02001920YS02001918 CONDUIT    441.24     0  02:13      0.64    0.43    1.00
  YS02001923YS02001920 CONDUIT    441.08     0  02:13      0.70    0.20    1.00
  YS02001926YS02001923 CONDUIT    419.70     0  02:12      0.96    0.60    1.00
  YS02001929YS02001926 CONDUIT    387.55     0  02:12      1.13    0.18    1.00
  YS02006553YS02006556 CONDUIT    793.82     0  02:25      1.01    0.68    1.00
  YS02006556YS02006558 CONDUIT    795.24     0  02:24      1.01    0.63    1.00
  YS02006558YS02006561 CONDUIT   1176.31     0  02:11      4.16    2.60    1.00
  YS02006561YS02001783 CONDUIT   1154.02     0  02:12      2.30    0.60    1.00
  YS02163301YS02001633 CONDUIT    933.30     0  02:10      1.19    0.88    1.00
  YS02163601YS02164001 CONDUIT   1400.49     0  02:11      1.78    1.24    1.00
  YS02164001YS02001641 CONDUIT   1397.53     0  02:11      1.78    1.91    1.00
  CC-R1                PUMP       683.00     0  00:15              1.00
  CC-R2                PUMP       683.00     0  00:10              1.00
  CC-S1                PUMP       200.00     0  00:10              1.00
  CC-S2                PUMP       200.00     0  00:05              1.00
  JK-R1                PUMP      1000.00     0  00:05              1.00
  JK-R2                PUMP      1000.00     0  00:05              1.00
  JK-S                 PUMP       300.00     0  00:15              1.00
  
  
  ***************************
  Flow Classification Summary
  ***************************
  
  -------------------------------------------------------------------------------------
                      Adjusted    ---------- Fraction of Time in Flow Class ---------- 
                       /Actual         Up    Down  Sub   Sup   Up    Down  Norm  Inlet 
  Conduit               Length    Dry  Dry   Dry   Crit  Crit  Crit  Crit  Ltd   Ctrl  
  -------------------------------------------------------------------------------------
  1                       1.00   0.00  0.00  0.00  0.00  1.00  0.00  0.00  0.46  0.00
  WS02003060WS02003069    1.00   0.00  0.00  0.00  0.94  0.06  0.00  0.00  0.78  0.00
  WS02003066WSF200        1.00   0.05  0.00  0.00  0.00  0.95  0.00  0.00  0.91  0.00
  WS02003067WS02003066    1.00   0.02  0.02  0.00  0.96  0.00  0.00  0.00  0.00  0.00
  WS02003069WS02003072    1.00   0.00  0.00  0.00  1.00  0.00  0.00  0.00  0.81  0.00
  WS02003072WS02003073    1.00   0.00  0.00  0.00  0.00  0.00  0.00  1.00  0.00  0.00
  WS02004401WS02004402    1.00   0.00  0.00  0.00  1.00  0.00  0.00  0.00  0.00  0.00
  WS02004402WS02004403    1.00   0.00  0.00  0.00  1.00  0.00  0.00  0.00  0.00  0.00
  WS02004403WS02004404    1.00   0.00  0.00  0.00  1.00  0.00  0.00  0.00  0.00  0.00
  WS02004404WS02004405    1.00   0.00  0.00  0.00  1.00  0.00  0.00  0.00  0.01  0.00
  WS02004405WS02004406    1.00   0.00  0.00  0.00  1.00  0.00  0.00  0.00  0.00  0.00
  WS02004406WS02004407    1.00   0.00  0.00  0.00  1.00  0.00  0.00  0.00  0.00  0.00
  WS02004407WS02004409    1.00   0.00  0.00  0.00  0.99  0.01  0.00  0.00  0.99  0.00
  WS02004409WS02004410    1.00   0.00  0.00  0.00  1.00  0.00  0.00  0.00  0.00  0.00
  WS02004410WS02004411    1.00   0.00  0.00  0.00  1.00  0.00  0.00  0.00  0.00  0.00
  WS02004411WS02004412    1.00   0.00  0.00  0.00  0.99  0.00  0.00  0.00  0.00  0.00
  WS02004412WS02004413    1.00   0.00  0.00  0.00  0.99  0.01  0.00  0.00  0.00  0.00
  WS02004413WS02003067    1.00   0.01  0.02  0.00  0.00  0.00  0.98  0.00  0.00  0.00
  WS02006109WS02006110    1.00   0.00  0.00  0.00  1.00  0.00  0.00  0.00  0.00  0.00
  WS02006110WS02006113    1.00   0.00  0.00  0.00  1.00  0.00  0.00  0.00  0.00  0.00
  WS02006111WS02006112    1.00   0.00  0.00  0.00  1.00  0.00  0.00  0.00  1.00  0.00
  WS02006112WS02006115    1.00   0.00  0.00  0.00  1.00  0.00  0.00  0.00  0.00  0.00
  WS02006113WS02006111    1.00   0.00  0.00  0.00  0.00  1.00  0.00  0.00  0.10  0.00
  WS02006115WS02006116    1.00   0.00  0.00  0.00  1.00  0.00  0.00  0.00  0.00  0.00
  WS02006116WS02004401    1.00   0.00  0.00  0.00  1.00  0.00  0.00  0.00  0.00  0.00
  WS02006228WS02006109    1.00   0.00  0.00  0.00  1.00  0.00  0.00  0.00  0.00  0.00
  WS02006229WS02006228    1.00   0.00  0.00  0.00  1.00  0.00  0.00  0.00  0.00  0.00
  WS02006230WS02006229    1.00   0.00  0.00  0.00  1.00  0.00  0.00  0.00  0.03  0.00
  WS02006231WS02006230    1.00   0.00  0.00  0.00  0.32  0.00  0.68  0.00  0.00  0.00
  WS02006232WS02006231    1.00   0.00  0.00  0.00  0.99  0.00  0.01  0.00  0.00  0.00
  WS02006234WS02006232    1.00   0.00  0.00  0.00  1.00  0.00  0.00  0.00  0.13  0.00
  WS02006235WS02006234    1.00   0.00  0.00  0.00  0.86  0.00  0.13  0.00  0.00  0.00
  WS02006238WS02006235    1.00   0.00  0.00  0.00  1.00  0.00  0.00  0.00  0.00  0.00
  WS02006239WS02006238    1.00   0.00  0.00  0.00  1.00  0.00  0.00  0.00  0.23  0.00
  WS02006240WS02006239    1.00   0.03  0.00  0.00  0.72  0.00  0.00  0.25  0.05  0.00
  WS02006242WS02006240    1.00   0.02  0.01  0.00  0.95  0.00  0.02  0.00  0.00  0.00
  WS02006243WS02006242    1.00   0.02  0.00  0.00  0.96  0.00  0.00  0.03  0.65  0.00
  WS02006245WS02006243    1.00   0.01  0.00  0.00  0.82  0.00  0.00  0.16  0.01  0.00
  WS02006247WS02006245    1.00   0.01  0.00  0.00  0.93  0.00  0.00  0.06  0.00  0.00
  WS02006248WS02006247    1.00   0.01  0.00  0.00  0.96  0.00  0.00  0.04  0.51  0.00
  WS02006249WS02006248    1.00   0.01  0.00  0.00  0.61  0.00  0.39  0.00  0.00  0.00
  WS02006251WS02006249    1.00   0.01  0.00  0.00  0.98  0.01  0.00  0.00  0.65  0.00
  WS02006252WS02006251    1.00   0.01  0.40  0.00  0.10  0.00  0.50  0.00  0.00  0.00
  WS02006256WS02006235    1.00   0.00  0.00  0.00  0.98  0.01  0.00  0.00  0.01  0.00
  WSF200WS02003060        1.00   0.00  0.05  0.00  0.31  0.64  0.00  0.00  0.75  0.00
  YS02001580YS02001583    1.00   0.29  0.46  0.00  0.25  0.00  0.00  0.00  0.67  0.00
  YS02001583YS02001586    1.00   0.33  0.27  0.00  0.40  0.00  0.00  0.00  0.67  0.00
  YS02001586YS02001590    1.00   0.19  0.00  0.00  0.57  0.03  0.00  0.21  0.38  0.00
  YS02001590YS02001593    1.00   0.19  0.00  0.00  0.16  0.00  0.64  0.00  0.00  0.00
  YS02001593YS02001596    1.00   0.19  0.00  0.00  0.19  0.01  0.00  0.60  0.02  0.00
  YS02001596YS02001600    1.00   0.19  0.00  0.00  0.26  0.01  0.00  0.53  0.05  0.00
  YS02001600YS02001601    1.00   0.19  0.00  0.00  0.80  0.00  0.00  0.00  0.63  0.00
  YS02001601YS02001602    1.00   0.19  0.01  0.00  0.81  0.00  0.00  0.00  0.00  0.00
  YS02001602YS02001605    1.00   0.19  0.00  0.00  0.80  0.00  0.00  0.00  0.00  0.00
  YS02001605YS02001607    1.00   0.20  0.00  0.00  0.80  0.00  0.00  0.00  0.00  0.00
  YS02001607YS02001610    1.00   0.19  0.00  0.00  0.80  0.00  0.00  0.00  0.02  0.00
  YS02001610YS02001613    1.00   0.19  0.00  0.00  0.81  0.00  0.00  0.00  0.01  0.00
  YS02001613YS02001616    1.00   0.19  0.00  0.00  0.81  0.00  0.00  0.00  0.01  0.00
  YS02001616YS02001619    1.00   0.19  0.00  0.00  0.81  0.00  0.00  0.00  0.00  0.00
  YS02001619YS02001622    1.00   0.19  0.00  0.00  0.81  0.00  0.00  0.00  0.29  0.00
  YS02001622YS02001625    1.00   0.19  0.00  0.00  0.81  0.00  0.00  0.00  0.06  0.00
  YS02001625YS02001629    1.00   0.19  0.03  0.00  0.22  0.00  0.56  0.00  0.00  0.00
  YS02001629YS02163301    1.00   0.21  0.01  0.00  0.79  0.00  0.00  0.00  0.00  0.00
  YS02001633YS02163601    1.00   0.19  0.00  0.00  0.81  0.00  0.00  0.00  0.02  0.00
  YS02001641YS02001644    1.00   0.19  0.00  0.00  0.81  0.00  0.00  0.00  0.00  0.00
  YS02001644YS02001647    1.00   0.19  0.03  0.00  0.78  0.00  0.00  0.00  0.00  0.00
  YS02001647YS02001649    1.00   0.20  0.02  0.00  0.41  0.37  0.00  0.00  0.57  0.00
  YS02001649YS02001757    1.00   0.00  0.20  0.00  0.38  0.42  0.00  0.00  0.23  0.00
  YS02001652YS02001649    1.00   0.20  0.00  0.00  0.78  0.02  0.00  0.00  0.65  0.00
  YS02001655YS02001652    1.00   0.20  0.00  0.00  0.24  0.02  0.00  0.55  0.06  0.00
  YS02001658YS02001655    1.00   0.20  0.00  0.00  0.46  0.34  0.00  0.00  0.74  0.00
  YS02001661YS02001658    1.00   0.20  0.00  0.00  0.30  0.51  0.00  0.00  0.75  0.00
  YS02001664YS02001661    1.00   0.19  0.00  0.00  0.62  0.19  0.00  0.00  0.86  0.00
  YS02001745YS02001748    1.00   0.19  0.00  0.00  0.08  0.02  0.00  0.70  0.04  0.00
  YS02001748YS02001751    1.00   0.19  0.00  0.00  0.57  0.24  0.00  0.00  0.67  0.00
  YS02001751YS02001754    1.00   0.19  0.00  0.00  0.19  0.01  0.00  0.61  0.04  0.00
  YS02001754YS02001757    1.00   0.00  0.19  0.00  0.80  0.01  0.00  0.00  0.73  0.00
  YS02001757CaochengTiaoxuchi    1.00   0.00  0.00  0.00  0.91  0.09  0.00  0.00  0.83  0.00
  YS02001759YS02001757    1.00   0.00  0.19  0.00  0.80  0.01  0.00  0.00  0.56  0.00
  YS02001762YS02001759    1.00   0.19  0.00  0.00  0.81  0.00  0.00  0.00  0.05  0.00
  YS02001765YS02001762    1.00   0.19  0.00  0.00  0.81  0.00  0.00  0.00  0.62  0.00
  YS02001767YS02001765    1.00   0.19  0.00  0.00  0.81  0.00  0.00  0.00  0.00  0.00
  YS02001770YS02001767    1.00   0.19  0.00  0.00  0.81  0.00  0.00  0.00  0.00  0.00
  YS02001774YS02001770    1.00   0.20  0.00  0.00  0.68  0.00  0.12  0.00  0.03  0.00
  YS02001779YS02001774    1.00   0.20  0.35  0.00  0.45  0.00  0.00  0.00  0.61  0.00
  YS02001783YS02001784    1.00   0.23  0.00  0.00  0.77  0.00  0.00  0.00  0.56  0.00
  YS02001784YS02001785    1.00   0.23  0.00  0.00  0.77  0.00  0.00  0.00  0.38  0.00
  YS02001786YS02001788    1.00   0.23  0.00  0.00  0.46  0.31  0.00  0.00  0.00  0.00
  YS02001788YS02001790    1.00   0.23  0.00  0.00  0.15  0.62  0.00  0.00  0.62  0.00
  YS02001790YS02001791    1.00   0.23  0.00  0.00  0.00  0.77  0.00  0.00  0.15  0.00
  YS02001791YS02001793    1.00   0.23  0.00  0.00  0.00  0.77  0.00  0.00  0.01  0.00
  YS02001793JiankangQianchi    1.00   0.00  0.23  0.00  0.73  0.03  0.00  0.00  0.77  0.00
  YS02001882YS02001884    1.00   0.21  0.00  0.00  0.79  0.00  0.00  0.00  0.00  0.00
  YS02001884YS02001887    1.00   0.20  0.01  0.00  0.80  0.00  0.00  0.00  0.00  0.00
  YS02001887YS02001890    1.00   0.19  0.00  0.00  0.80  0.00  0.01  0.00  0.00  0.00
  YS02001890YS02001895    1.00   0.19  0.02  0.00  0.79  0.00  0.00  0.00  0.00  0.00
  YS02001895YS02001898    1.00   0.21  0.00  0.00  0.77  0.00  0.01  0.00  0.00  0.00
  YS02001898YS02001901    1.00   0.22  0.00  0.00  0.78  0.00  0.00  0.00  0.01  0.00
  YS02001901YS02001904    1.00   0.22  0.01  0.00  0.78  0.00  0.00  0.00  0.00  0.00
  YS02001904YS02001907    1.00   0.19  0.03  0.00  0.78  0.00  0.00  0.00  0.00  0.00
  YS02001907YS02006553    1.00   0.19  0.01  0.00  0.80  0.00  0.00  0.00  0.01  0.00
  YS02001910YS02001907    1.00   0.19  0.00  0.00  0.80  0.00  0.00  0.01  0.03  0.00
  YS02001915YS02001910    1.00   0.19  0.00  0.00  0.79  0.02  0.00  0.00  0.03  0.00
  YS02001918YS02001915    1.00   0.19  0.02  0.00  0.79  0.00  0.00  0.00  0.73  0.00
  YS02001920YS02001918    1.00   0.20  0.01  0.00  0.79  0.00  0.00  0.00  0.00  0.00
  YS02001923YS02001920    1.00   0.20  0.00  0.00  0.80  0.00  0.00  0.00  0.79  0.00
  YS02001926YS02001923    1.00   0.19  0.01  0.00  0.08  0.00  0.72  0.00  0.00  0.00
  YS02001929YS02001926    1.00   0.19  0.00  0.00  0.81  0.00  0.00  0.00  0.83  0.00
  YS02006553YS02006556    1.00   0.20  0.00  0.00  0.80  0.00  0.00  0.00  0.02  0.00
  YS02006556YS02006558    1.00   0.19  0.00  0.00  0.81  0.00  0.00  0.00  0.00  0.00
  YS02006558YS02006561    1.00   0.23  0.00  0.00  0.07  0.70  0.00  0.00  0.18  0.00
  YS02006561YS02001783    1.00   0.23  0.00  0.00  0.19  0.58  0.00  0.00  0.70  0.00
  YS02163301YS02001633    1.00   0.19  0.02  0.00  0.79  0.00  0.00  0.00  0.00  0.00
  YS02163601YS02164001    1.00   0.19  0.01  0.00  0.80  0.00  0.00  0.00  0.01  0.00
  YS02164001YS02001641    1.00   0.19  0.01  0.00  0.80  0.00  0.00  0.00  0.00  0.00
  
  
  *************************
  Conduit Surcharge Summary
  *************************
  
  ----------------------------------------------------------------------------
                                                           Hours        Hours 
                         --------- Hours Full --------   Above Full   Capacity
  Conduit                Both Ends  Upstream  Dnstream   Normal Flow   Limited
  ----------------------------------------------------------------------------
  WS02003072WS02003073        0.01      0.01      0.01      0.74         0.01
  WS02004401WS02004402        0.01      0.01      0.01      0.01         0.01
  WS02004402WS02004403        0.01      0.01      0.01      0.02         0.01
  WS02004404WS02004405        0.01      0.01      0.01      2.36         0.01
  WS02004405WS02004406        0.01      0.01      0.01      0.28         0.01
  WS02006109WS02006110        0.35      0.35      1.32      0.43         0.01
  WS02006110WS02006113        0.01      0.01      1.30      0.01         0.01
  WS02006111WS02006112        0.01      0.01      1.48      0.01         0.01
  WS02006112WS02006115        0.01      0.01      0.47      0.01         0.01
  WS02006113WS02006111        0.01      0.01      0.01      0.01         0.01
  WS02006115WS02006116        0.01      0.01      0.01      0.01         0.01
  WS02006116WS02004401        0.01      0.01      0.01      0.02         0.01
  WS02006228WS02006109        1.25      1.31      1.26      1.80         1.25
  WS02006229WS02006228        1.24      1.27      1.24      1.54         1.23
  WS02006230WS02006229        1.34      1.50      1.36      2.88         1.34
  WS02006231WS02006230        0.36      0.36      0.48      2.44         0.01
  WS02006232WS02006231        0.44      0.44      1.32      0.51         0.01
  WS02006234WS02006232        1.20      1.20      1.32      0.48         0.48
  WS02006235WS02006234        0.74      0.74      1.25      2.23         0.01
  WS02006238WS02006235        1.27      1.27      1.33      0.01         0.01
  WS02006239WS02006238        1.25      1.27      1.29      1.26         1.09
  WS02006240WS02006239        1.20      1.21      1.21      1.25         1.04
  WS02006242WS02006240        1.20      1.20      1.28      1.43         0.01
  WS02006243WS02006242        1.19      1.19      1.23      0.01         0.03
  WS02006245WS02006243        1.17      1.17      1.18      0.88         0.78
  WS02006247WS02006245        1.17      1.17      1.17      1.94         1.16
  WS02006248WS02006247        1.16      1.16      1.17      0.01         0.03
  WS02006249WS02006248        1.15      1.15      1.15      1.86         0.01
  WS02006251WS02006249        1.15      1.15      1.15      1.35         1.09
  WS02006252WS02006251        1.43      1.43      1.45      1.43         0.01
  WS02006256WS02006235        2.25      2.29      5.81      0.92         0.01
  YS02001580YS02001583        0.36      0.36      0.41      0.01         0.01
  YS02001583YS02001586        0.37      0.37      0.49      0.01         0.01
  YS02001586YS02001590        0.50      0.50      0.56      0.01         0.01
  YS02001590YS02001593        0.56      0.56      0.58      0.59         0.01
  YS02001593YS02001596        0.57      0.57      0.66      0.01         0.01
  YS02001596YS02001600        0.71      0.71      0.80      0.01         0.01
  YS02001600YS02001601        0.86      0.86      1.17      0.01         0.01
  YS02001601YS02001602        1.05      1.05      1.21      0.82         0.01
  YS02001602YS02001605        0.99      0.99      1.05      2.06         0.01
  YS02001605YS02001607        0.94      0.99      0.94      1.13         0.94
  YS02001607YS02001610        0.52      0.52      0.54      0.01         0.01
  YS02001610YS02001613        0.51      0.51      0.54      0.01         0.01
  YS02001613YS02001616        0.47      0.47      0.51      0.01         0.01
  YS02001616YS02001619        0.46      0.46      0.47      0.01         0.01
  YS02001619YS02001622        0.45      0.46      0.45      0.59         0.43
  YS02001622YS02001625        0.45      0.45      0.62      0.01         0.01
  YS02001625YS02001629        0.40      0.40      0.62      0.01         0.01
  YS02001629YS02163301        0.61      0.61      0.61      0.24         0.22
  YS02001633YS02163601        0.63      0.63      0.66      0.40         0.40
  YS02001641YS02001644        0.52      0.56      0.52      1.25         0.52
  YS02001644YS02001647        0.31      0.31      0.52      0.04         0.01
  YS02001647YS02001649        0.31      0.31      0.40      0.01         0.01
  YS02001649YS02001757        0.39      0.40      0.44      0.30         0.23
  YS02001652YS02001649        0.26      0.26      0.40      0.01         0.01
  YS02001655YS02001652        0.11      0.11      0.24      0.01         0.01
  YS02001658YS02001655        0.02      0.02      0.11      0.01         0.01
  YS02001661YS02001658        0.01      0.01      0.02      0.01         0.01
  YS02001748YS02001751        0.01      0.01      0.03      0.01         0.01
  YS02001751YS02001754        0.03      0.03      0.14      0.01         0.01
  YS02001754YS02001757        0.17      0.17      0.44      0.01         0.01
  YS02001757CaochengTiaoxuchi        0.35      0.44      0.99      0.27         0.14
  YS02001759YS02001757        0.33      0.33      0.44      0.01         0.01
  YS02001762YS02001759        0.31      0.31      0.33      0.01         0.01
  YS02001765YS02001762        0.27      0.27      0.31      0.01         0.01
  YS02001767YS02001765        0.26      0.26      0.27      0.01         0.02
  YS02001770YS02001767        0.26      0.26      0.26      0.39         0.20
  YS02001774YS02001770        0.24      0.24      0.30      0.01         0.01
  YS02001779YS02001774        0.15      0.15      0.30      0.01         0.01
  YS02001783YS02001784        0.34      0.37      0.34      0.50         0.34
  YS02001784YS02001785        0.25      0.34      0.25      0.70         0.25
  YS02001786YS02001788        0.01      0.25      0.01      0.59         0.01
  YS02001790YS02001791        0.01      0.01      0.01      0.33         0.01
  YS02001793JiankangQianchi        0.01      0.01      4.23      0.01         0.01
  YS02001882YS02001884        0.32      0.32      0.33      0.01         0.01
  YS02001884YS02001887        0.35      0.35      0.36      0.01         0.01
  YS02001887YS02001890        0.37      0.37      0.38      0.01         0.01
  YS02001890YS02001895        0.31      0.31      0.40      0.01         0.01
  YS02001895YS02001898        0.30      0.30      0.31      0.01         0.01
  YS02001898YS02001901        0.31      0.31      0.34      0.01         0.01
  YS02001901YS02001904        0.34      0.34      0.34      0.01         0.01
  YS02001904YS02001907        0.34      0.34      0.58      0.01         0.01
  YS02001907YS02006553        0.71      0.71      0.78      0.01         0.01
  YS02001910YS02001907        0.39      0.39      0.56      0.01         0.01
  YS02001915YS02001910        0.32      0.32      0.39      0.01         0.01
  YS02001918YS02001915        0.24      0.24      0.32      0.01         0.01
  YS02001920YS02001918        0.24      0.24      0.25      0.01         0.01
  YS02001923YS02001920        0.20      0.20      0.25      0.01         0.01
  YS02001926YS02001923        0.01      0.01      0.01      0.01         0.01
  YS02001929YS02001926        0.01      0.01      0.01      0.01         0.01
  YS02006553YS02006556        0.48      0.48      0.58      0.01         0.01
  YS02006556YS02006558        0.53      0.53      0.59      0.01         0.01
  YS02006558YS02006561        0.27      0.47      0.27      0.66         0.27
  YS02006561YS02001783        0.21      0.21      0.37      0.01         0.01
  YS02163301YS02001633        0.61      0.61      0.65      0.01         0.01
  YS02163601YS02164001        0.56      0.56      0.66      0.14         0.01
  YS02164001YS02001641        0.56      0.56      0.56      0.69         0.53
  
  
  ***************
  Pumping Summary
  ***************
  
  ---------------------------------------------------------------------------------------------------------
                                                  Min       Avg       Max     Total     Power    % Time Off
                        Percent   Number of      Flow      Flow      Flow    Volume     Usage    Pump Curve
  Pump                 Utilized   Start-Ups       LPS       LPS       LPS  10^6 ltr     Kw-hr    Low   High
  ---------------------------------------------------------------------------------------------------------
  CC-R1                   19.83          26      0.00    683.00    683.00     3.900     69.29    0.0   39.1
  CC-R2                   14.58          29      0.00    683.00    683.00     2.868     50.14    0.0   61.5
  CC-S1                   21.44          16      0.00    200.00    200.00     1.235      7.72    0.0    0.0
  CC-S2                   22.29          22      0.00    200.00    200.00     1.284      8.01    0.0    0.0
  JK-R1                    3.75          14      0.00   1000.00   1000.00     1.081      9.68    0.0    0.0
  JK-R2                    4.11          12      0.00   1000.00   1000.00     1.183     11.14    0.0    0.0
  JK-S                    11.13          32      0.00    300.00    300.00     0.961     16.42    0.0    0.0
  

  Analysis begun on:  Thu Sep  7 18:05:39 2023
  Analysis ended on:  Thu Sep  7 18:05:47 2023
  Total elapsed time: 00:00:08