
  OWA STORM WATER MANAGEMENT MODEL - VERSION v5.1.14 (OWA 2022-07-31)
  --------------------------------------------------------------

  WARNING 04: minimum elevation drop used for Conduit WS02004404WS02004405
  WARNING 03: negative offset ignored for Link YS02001904YS02001907
  
  *********************************************************
  NOTE: The summary statistics displayed in this report are
  based on results found at every computational time step,  
  not just on results from each reporting time step.
  *********************************************************
  
  ****************
  Analysis Options
  ****************
  Flow Units ............... LPS
  Process Models:
    Rainfall/Runoff ........ YES
    RDII ................... NO
    Snowmelt ............... NO
    Groundwater ............ NO
    Flow Routing ........... YES
    Ponding Allowed ........ NO
    Water Quality .......... NO
  Infiltration Method ...... HORTON
  Flow Routing Method ...... DYNWAVE
  Surcharge Method ......... EXTRAN
  Starting Date ............ 08/28/2015 08:00:00
  Ending Date .............. 08/28/2015 16:00:00
  Antecedent Dry Days ...... 8.0
  Report Time Step ......... 00:01:00
  Wet Time Step ............ 00:01:00
  Dry Time Step ............ 00:01:00
  Routing Time Step ........ 30.00 sec
  Variable Time Step ....... YES
  Maximum Trials ........... 8
  Number of Threads ........ 1
  Head Tolerance ........... 0.001500 m
  
  
  **************************        Volume         Depth
  Runoff Quantity Continuity     hectare-m            mm
  **************************     ---------       -------
  Total Precipitation ......         3.316        99.971
  Evaporation Loss .........         0.000         0.000
  Infiltration Loss ........         0.101         3.048
  Surface Runoff ...........         3.183        95.958
  Final Storage ............         0.033         0.996
  Continuity Error (%) .....        -0.030
  
  
  **************************        Volume        Volume
  Flow Routing Continuity        hectare-m      10^6 ltr
  **************************     ---------     ---------
  Dry Weather Inflow .......         0.000         0.000
  Wet Weather Inflow .......         3.182        31.816
  Groundwater Inflow .......         0.000         0.000
  RDII Inflow ..............         0.000         0.000
  External Inflow ..........         0.083         0.834
  External Outflow .........         2.019        20.194
  Flooding Loss ............         1.345        13.453
  Evaporation Loss .........         0.000         0.000
  Exfiltration Loss ........         0.000         0.000
  Initial Stored Volume ....         0.243         2.431
  Final Stored Volume ......         0.179         1.790
  Continuity Error (%) .....        -1.017
  
  
  *************************
  Highest Continuity Errors
  *************************
  Node YS02001583 (-18.69%)
  Node YS02001884 (3.90%)
  Node WS02006256 (-1.40%)
  Node WS02006110 (-1.32%)
  Node WS02006111 (-1.02%)
  
  
  ***************************
  Time-Step Critical Elements
  ***************************
  Link WS02006252WS02006251 (24.98%)
  Link YS02001791YS02001793 (17.94%)
  Link WS02006238WS02006235 (16.48%)
  Link WS02004404WS02004405 (15.80%)
  Link WS02003066WSF200 (6.62%)
  
  
  ********************************
  Highest Flow Instability Indexes
  ********************************
  Link WS02006113WS02006111 (30)
  Link WS02006252WS02006251 (24)
  Link WS02006238WS02006235 (23)
  Link WS02006256WS02006235 (19)
  Link WS02006111WS02006112 (17)
  
  
  *************************
  Routing Time Step Summary
  *************************
  Minimum Time Step           :     0.00 sec
  Average Time Step           :     2.58 sec
  Maximum Time Step           :    30.00 sec
  Percent in Steady State     :    -0.00
  Average Iterations per Step :     3.63
  Percent Not Converging      :    18.03
  
  
  ***************************
  Subcatchment Runoff Summary
  ***************************
  
  ------------------------------------------------------------------------------------------------------------------------------
                            Total      Total      Total      Total     Imperv       Perv      Total       Total     Peak  Runoff
                           Precip      Runon       Evap      Infil     Runoff     Runoff     Runoff      Runoff   Runoff   Coeff
  Subcatchment                 mm         mm         mm         mm         mm         mm         mm    10^6 ltr      LPS
  ------------------------------------------------------------------------------------------------------------------------------
  sub60                     81.29       0.00       0.00       1.85      70.35       7.91      78.26        1.03   633.18   0.963
  sub61                     81.29       0.00       0.00       2.67      66.36      11.15      77.51        1.42   870.88   0.953
  sub62                     81.29       0.00       0.00       1.23      73.52       5.28      78.79        2.16  1220.92   0.969
  sub63                     81.29       0.00       0.00       4.89      56.76      18.70      75.46        1.71   948.69   0.928
  sub64                     81.29       0.00       0.00       2.48      67.90       9.72      77.63        1.86   975.23   0.955
  sub65                     81.29       0.00       0.00       2.14      69.48       8.43      77.91        2.14  1084.15   0.958
  sub66                     81.29       0.00       0.00       5.96      56.65      17.62      74.27        3.46  1379.27   0.914
  sub67                    153.32       0.00       0.00       1.23     139.84      11.04     150.88        2.81  1971.92   0.984
  sub68                    153.32       0.00       0.00       2.35     130.69      19.12     149.81        4.12  2743.32   0.977
  sub69                     81.29       0.00       0.00       1.96      69.00      10.24      79.23        2.93  1459.46   0.975
  sub70                     81.29       0.00       0.00       6.41      53.49      21.23      74.73        2.16   781.26   0.919
  sub71                    153.32       0.00       0.00       1.34     139.74      10.93     150.68        3.94  2475.65   0.983
  sub72                    153.32       0.00       0.00       1.19     141.19       9.54     150.73        2.07  1241.37   0.983
  
  
  ******************
  Node Depth Summary
  ******************
  
  ---------------------------------------------------------------------------------
                                 Average  Maximum  Maximum  Time of Max    Reported
                                   Depth    Depth      HGL   Occurrence   Max Depth
  Node                 Type       Meters   Meters   Meters  days hr:min      Meters
  ---------------------------------------------------------------------------------
  WS02003060           JUNCTION     0.21     0.38     5.31     0  02:59        0.38
  WS02003066           JUNCTION     0.18     0.30     5.85     0  02:58        0.30
  WS02003067           JUNCTION     0.48     0.70     6.02     0  02:58        0.70
  WS02003069           JUNCTION     0.23     0.43     5.01     0  02:59        0.43
  WS02003072           JUNCTION     0.29     0.50     4.87     0  03:00        0.50
  WS02003073           JUNCTION     0.16     0.30     4.36     0  03:01        0.30
  WS02004401           JUNCTION     0.56     0.85     6.85     0  02:49        0.85
  WS02004402           JUNCTION     0.59     0.88     6.84     0  02:49        0.88
  WS02004403           JUNCTION     0.62     0.89     6.82     0  02:49        0.89
  WS02004404           JUNCTION     0.70     0.96     6.81     0  02:49        0.96
  WS02004405           JUNCTION     0.69     0.96     6.81     0  02:49        0.95
  WS02004406           JUNCTION     0.71     0.96     6.79     0  02:50        0.96
  WS02004407           JUNCTION     0.16     0.30     6.61     0  02:50        0.30
  WS02004409           JUNCTION     0.35     0.67     6.44     0  02:57        0.67
  WS02004410           JUNCTION     0.38     0.68     6.40     0  02:59        0.68
  WS02004411           JUNCTION     0.40     0.69     6.37     0  02:59        0.69
  WS02004412           JUNCTION     0.43     0.70     6.34     0  02:58        0.70
  WS02004413           JUNCTION     0.60     0.86     6.33     0  02:58        0.86
  WS02006109           JUNCTION     0.61     1.51     8.13     0  02:36        1.08
  WS02006110           JUNCTION     0.61     1.69     8.28     0  02:36        1.01
  WS02006111           JUNCTION     0.16     1.67     8.37     0  00:00        0.56
  WS02006112           JUNCTION     0.71     2.68     8.56     0  00:00        1.29
  WS02006113           JUNCTION     0.24     1.50     8.40     0  00:00        0.46
  WS02006115           JUNCTION     0.44     1.69     7.83     0  00:00        0.86
  WS02006116           JUNCTION     0.53     1.11     7.15     0  00:00        0.83
  WS02006228           JUNCTION     0.60     1.64     8.29     0  00:00        1.14
  WS02006229           JUNCTION     0.57     1.31     8.00     0  00:00        1.16
  WS02006230           JUNCTION     0.57     1.30     8.05     0  03:01        1.24
  WS02006231           JUNCTION     0.38     1.56     8.69     0  02:35        1.01
  WS02006232           JUNCTION     0.51     1.66     8.70     0  03:00        1.22
  WS02006234           JUNCTION     0.44     1.96     9.12     0  03:00        1.27
  WS02006235           JUNCTION     0.48     2.00     9.16     0  03:00        1.38
  WS02006238           JUNCTION     0.51     2.14     9.28     0  03:00        1.42
  WS02006239           JUNCTION     0.48     2.03     9.24     0  03:00        1.40
  WS02006240           JUNCTION     0.45     1.91     9.20     0  03:00        1.38
  WS02006242           JUNCTION     0.52     1.55     8.82     0  01:40        1.44
  WS02006243           JUNCTION     0.45     1.39     8.81     0  03:00        1.31
  WS02006245           JUNCTION     0.45     1.34     8.83     0  02:35        1.25
  WS02006247           JUNCTION     0.48     1.25     8.75     0  03:00        1.22
  WS02006248           JUNCTION     0.44     1.10     8.69     0  01:50        1.10
  WS02006249           JUNCTION     0.47     1.09     8.69     0  01:41        1.09
  WS02006251           JUNCTION     0.48     1.73     9.40     0  01:41        1.20
  WS02006252           JUNCTION     0.33     1.50     9.74     0  01:32        0.75
  WS02006256           JUNCTION     0.94     2.35     9.28     0  00:15        2.35
  WSF200               JUNCTION     0.15     0.29     5.52     0  02:52        0.29
  YS02001580           JUNCTION     0.14     1.05     9.59     0  01:24        0.79
  YS02001583           JUNCTION     0.18     1.14     9.64     0  01:24        0.83
  YS02001586           JUNCTION     0.27     1.13     9.30     0  01:23        1.13
  YS02001590           JUNCTION     0.38     1.40     9.26     0  01:24        1.37
  YS02001593           JUNCTION     0.31     1.37     9.23     0  01:23        1.29
  YS02001596           JUNCTION     0.43     1.73     9.15     0  01:23        1.66
  YS02001600           JUNCTION     0.51     1.87     9.00     0  01:23        1.87
  YS02001601           JUNCTION     0.69     2.06     8.90     0  01:23        2.06
  YS02001602           JUNCTION     0.60     1.87     8.77     0  01:23        1.87
  YS02001605           JUNCTION     0.56     1.78     8.68     0  01:25        1.78
  YS02001607           JUNCTION     0.53     1.68     8.53     0  01:25        1.68
  YS02001610           JUNCTION     0.57     1.68     8.48     0  01:25        1.68
  YS02001613           JUNCTION     0.53     1.70     8.54     0  01:24        1.70
  YS02001616           JUNCTION     0.47     1.61     8.52     0  01:24        1.61
  YS02001619           JUNCTION     0.45     1.61     8.54     0  01:24        1.61
  YS02001622           JUNCTION     0.44     1.62     8.52     0  01:24        1.62
  YS02001625           JUNCTION     0.67     1.78     8.38     0  01:24        1.78
  YS02001629           JUNCTION     0.58     1.85     8.40     0  01:25        1.85
  YS02001633           JUNCTION     0.64     2.07     8.53     0  01:26        2.07
  YS02001641           JUNCTION     0.62     1.99     8.43     0  01:26        1.99
  YS02001644           JUNCTION     0.61     1.92     8.35     0  01:25        1.92
  YS02001647           JUNCTION     0.42     1.89     8.50     0  01:26        1.89
  YS02001649           JUNCTION     0.48     2.05     8.44     0  01:26        2.05
  YS02001652           JUNCTION     0.37     2.01     8.61     0  01:26        1.98
  YS02001655           JUNCTION     0.29     2.20     9.05     0  02:00        1.73
  YS02001658           JUNCTION     0.21     1.78     8.93     0  01:26        1.53
  YS02001661           JUNCTION     0.19     1.66     9.07     0  01:26        1.39
  YS02001664           JUNCTION     0.07     1.36     9.29     0  01:26        0.99
  YS02001745           JUNCTION     0.10     1.96     9.48     0  01:26        0.79
  YS02001748           JUNCTION     0.20     2.27     9.35     0  01:26        1.22
  YS02001751           JUNCTION     0.25     2.20     9.08     0  01:26        1.42
  YS02001754           JUNCTION     0.34     2.20     8.81     0  01:25        1.69
  YS02001757           JUNCTION     0.50     2.21     8.47     0  01:26        2.04
  YS02001759           JUNCTION     0.45     2.21     8.57     0  01:26        2.04
  YS02001762           JUNCTION     0.44     2.15     8.55     0  01:26        2.02
  YS02001765           JUNCTION     0.42     2.10     8.55     0  01:26        1.98
  YS02001767           JUNCTION     0.41     2.03     8.52     0  01:26        1.95
  YS02001770           JUNCTION     0.42     1.95     8.44     0  01:26        1.95
  YS02001774           JUNCTION     0.48     2.01     8.43     0  01:25        2.00
  YS02001779           JUNCTION     0.32     1.68     8.37     0  01:25        1.68
  YS02001783           JUNCTION     0.38     1.43     7.57     0  02:36        1.42
  YS02001784           JUNCTION     0.37     1.27     7.34     0  02:36        1.25
  YS02001786           JUNCTION     0.30     0.96     6.99     0  02:36        0.93
  YS02001788           JUNCTION     0.22     0.65     6.63     0  02:36        0.65
  YS02001790           JUNCTION     0.25     0.74     6.38     0  02:34        0.72
  YS02001791           JUNCTION     0.15     0.45     5.92     0  02:34        0.43
  YS02001793           JUNCTION     0.08     0.33     5.16     0  02:36        0.33
  YS02001882           JUNCTION     0.48     1.83     8.55     0  02:34        1.83
  YS02001884           JUNCTION     0.56     1.93     8.55     0  02:34        1.93
  YS02001887           JUNCTION     0.62     2.00     8.54     0  02:34        2.00
  YS02001890           JUNCTION     0.64     1.81     8.32     0  02:14        1.81
  YS02001895           JUNCTION     0.44     1.57     8.32     0  02:41        1.57
  YS02001898           JUNCTION     0.45     1.56     8.30     0  02:41        1.56
  YS02001901           JUNCTION     0.55     1.69     8.29     0  02:34        1.69
  YS02001904           JUNCTION     0.53     1.68     8.31     0  02:34        1.68
  YS02001907           JUNCTION     0.80     1.96     8.25     0  02:04        1.96
  YS02001910           JUNCTION     0.65     2.02     8.53     0  02:34        2.02
  YS02001915           JUNCTION     0.50     2.00     8.72     0  02:29        2.00
  YS02001918           JUNCTION     0.33     1.81     8.88     0  02:35        1.81
  YS02001920           JUNCTION     0.40     2.00     9.01     0  02:36        1.97
  YS02001923           JUNCTION     0.28     1.86     9.12     0  02:36        1.84
  YS02001926           JUNCTION     0.29     1.84     9.29     0  02:36        1.84
  YS02001929           JUNCTION     0.20     1.78     9.47     0  02:34        1.78
  YS02006553           JUNCTION     0.80     2.18     8.47     0  02:34        2.18
  YS02006556           JUNCTION     0.78     2.39     8.70     0  02:34        2.39
  YS02006558           JUNCTION     0.81     2.50     8.77     0  02:34        2.50
  YS02006561           JUNCTION     0.25     1.18     7.84     0  02:36        1.18
  YS02163301           JUNCTION     0.60     1.95     8.46     0  01:26        1.95
  YS02163601           JUNCTION     0.67     2.08     8.48     0  01:26        2.08
  YS02164001           JUNCTION     0.61     2.01     8.47     0  01:26        2.01
  CC-1                 OUTFALL      0.00     0.00     0.00     0  00:00        0.00
  CC-2                 OUTFALL      0.00     0.00     0.00     0  00:00        0.00
  JK-1                 OUTFALL      0.00     0.00     0.00     0  00:00        0.00
  JK-2                 OUTFALL      0.00     0.00     0.00     0  00:00        0.00
  WSC                  OUTFALL      0.16     0.30     0.97     0  03:01        0.30
  CC-storage           STORAGE      0.89     1.72     7.22     0  02:12        1.72
  JK-storage           STORAGE      1.78     4.22     5.02     0  01:56        4.20
  
  
  *******************
  Node Inflow Summary
  *******************
  
  -------------------------------------------------------------------------------------------------
                                  Maximum  Maximum                  Lateral       Total        Flow
                                  Lateral    Total  Time of Max      Inflow      Inflow     Balance
                                   Inflow   Inflow   Occurrence      Volume      Volume       Error
  Node                 Type           LPS      LPS  days hr:min    10^6 ltr    10^6 ltr     Percent
  -------------------------------------------------------------------------------------------------
  WS02003060           JUNCTION     16.53   552.08     0  02:58       0.476        4.65       0.043
  WS02003066           JUNCTION      0.00   535.49     0  02:58           0        4.17       0.030
  WS02003067           JUNCTION      0.00   535.46     0  02:58           0        4.18       0.095
  WS02003069           JUNCTION      0.32   552.38     0  02:59     0.00922        4.66       0.074
  WS02003072           JUNCTION      0.00   552.30     0  03:00           0        4.65       0.137
  WS02003073           JUNCTION      1.82   554.07     0  03:00      0.0524         4.7       0.104
  WS02004401           JUNCTION      0.00  1786.04     0  00:00           0        4.28       0.247
  WS02004402           JUNCTION      0.00  1248.69     0  00:01           0        4.27       0.249
  WS02004403           JUNCTION      0.00   929.44     0  00:01           0        4.26       0.246
  WS02004404           JUNCTION      0.00   877.02     0  00:01           0        4.25       0.198
  WS02004405           JUNCTION      0.00   827.31     0  00:01           0        4.24       0.298
  WS02004406           JUNCTION      0.00   768.45     0  00:02           0        4.23       0.498
  WS02004407           JUNCTION      0.00   536.13     0  02:50           0        4.21       0.019
  WS02004409           JUNCTION      0.00   535.94     0  02:50           0        4.21       0.054
  WS02004410           JUNCTION      0.00   535.75     0  02:50           0        4.21       0.096
  WS02004411           JUNCTION      0.00   535.67     0  02:51           0         4.2       0.123
  WS02004412           JUNCTION      0.00   535.57     0  02:57           0         4.2       0.165
  WS02004413           JUNCTION      0.00   535.54     0  03:00           0        4.19       0.309
  WS02006109           JUNCTION      0.00  1446.81     0  00:00           0        4.18      -0.160
  WS02006110           JUNCTION      0.00   553.69     0  03:08           0        4.15      -1.301
  WS02006111           JUNCTION      0.00  1180.41     0  00:00           0        4.21      -1.013
  WS02006112           JUNCTION      0.00  2307.30     0  00:00           0        4.25      -0.008
  WS02006113           JUNCTION      0.00   570.82     0  03:08           0        4.17      -0.906
  WS02006115           JUNCTION      0.00   953.54     0  00:00           0        4.22      -0.852
  WS02006116           JUNCTION      0.00  1264.47     0  00:00           0        4.26      -0.622
  WS02006228           JUNCTION      0.00   869.18     0  00:00           0        4.16      -0.043
  WS02006229           JUNCTION      0.00   554.99     0  03:08           0        4.15      -0.028
  WS02006230           JUNCTION     10.28   706.67     0  00:00       0.296        4.14       0.016
  WS02006231           JUNCTION      0.00   575.46     0  03:20           0        3.83       0.037
  WS02006232           JUNCTION      0.00   574.68     0  03:20           0        3.83       0.174
  WS02006234           JUNCTION      0.00   569.67     0  03:20           0        3.81      -0.246
  WS02006235           JUNCTION      0.00   565.13     0  03:20           0        3.86       0.245
  WS02006238           JUNCTION      0.00   422.58     0  02:15           0           3      -0.208
  WS02006239           JUNCTION      0.00   421.58     0  02:15           0        2.96      -0.245
  WS02006240           JUNCTION      0.00   419.01     0  03:05           0        2.95       0.003
  WS02006242           JUNCTION      0.00   419.14     0  03:05           0        2.95       0.108
  WS02006243           JUNCTION      0.00   418.49     0  03:05           0        2.94      -0.228
  WS02006245           JUNCTION      0.00   418.14     0  02:15           0        2.95       0.431
  WS02006247           JUNCTION      0.00   418.30     0  02:00           0        2.95      -0.044
  WS02006248           JUNCTION      0.00   418.60     0  01:45           0        2.95      -0.054
  WS02006249           JUNCTION      0.00   429.72     0  01:41           0        3.23       0.543
  WS02006251           JUNCTION      0.00   408.17     0  01:41           0        3.23       0.044
  WS02006252           JUNCTION      0.00   400.00     0  01:15           0        3.22      -0.468
  WS02006256           JUNCTION      0.00   300.00     0  00:15           0         1.3      -1.383
  WSF200               JUNCTION      0.00   535.50     0  02:58           0        4.17       0.007
  YS02001580           JUNCTION      0.00   291.33     0  01:24           0      0.0052     -12.282
  YS02001583           JUNCTION      0.00   323.26     0  01:24           0      0.0146     -15.750
  YS02001586           JUNCTION    781.26   781.26     0  01:32        2.16        2.17       0.083
  YS02001590           JUNCTION      0.00   318.03     0  01:42           0        1.59      -0.036
  YS02001593           JUNCTION      0.00   318.01     0  01:55           0        1.59       0.031
  YS02001596           JUNCTION      0.00   317.99     0  01:42           0        1.59       0.014
  YS02001600           JUNCTION      0.00   317.98     0  01:54           0        1.59       0.010
  YS02001601           JUNCTION   1459.46  1776.97     0  01:30        2.93        4.52       0.036
  YS02001602           JUNCTION      0.00   601.83     0  01:24           0        2.58       0.022
  YS02001605           JUNCTION      0.00   601.70     0  01:24           0        2.42       0.021
  YS02001607           JUNCTION      0.00   601.54     0  01:24           0        2.42       0.054
  YS02001610           JUNCTION      0.00   769.35     0  01:32           0        2.79       0.076
  YS02001613           JUNCTION      0.00   536.05     0  01:24           0        2.14       0.063
  YS02001616           JUNCTION      0.00   603.99     0  01:24           0        2.14      -0.023
  YS02001619           JUNCTION   1379.27  1379.27     0  01:31        3.46        5.22       0.006
  YS02001622           JUNCTION      0.00   973.91     0  01:24           0        4.83      -0.014
  YS02001625           JUNCTION      0.00  1373.40     0  01:33           0        5.11       0.201
  YS02001629           JUNCTION      0.00   809.76     0  02:06           0        3.84       0.012
  YS02001633           JUNCTION   1084.15  1244.93     0  01:25        2.14        5.61       0.056
  YS02001641           JUNCTION      0.00  1230.16     0  01:25           0        5.26       0.054
  YS02001644           JUNCTION    975.23  1921.84     0  01:25        1.86        7.11       0.049
  YS02001647           JUNCTION      0.00  1929.06     0  01:25           0        6.58       0.004
  YS02001649           JUNCTION      0.00  2117.50     0  01:25           0         8.3       0.016
  YS02001652           JUNCTION      0.00  1100.35     0  01:27           0        1.72      -0.201
  YS02001655           JUNCTION      0.00  1094.04     0  01:27           0        1.71      -0.110
  YS02001658           JUNCTION      0.00  1090.32     0  01:27           0        1.73      -0.146
  YS02001661           JUNCTION      0.00  1086.54     0  01:27           0        1.73       0.000
  YS02001664           JUNCTION    948.69   948.69     0  01:28        1.71        1.71      -0.037
  YS02001745           JUNCTION    633.18   633.18     0  01:28        1.03        1.03       0.190
  YS02001748           JUNCTION      0.00   875.80     0  01:26           0        1.03      -0.442
  YS02001751           JUNCTION      0.00  1013.42     0  01:25           0        1.04       0.150
  YS02001754           JUNCTION      0.00   776.20     0  01:26           0        1.04      -0.854
  YS02001757           JUNCTION      0.00  3635.79     0  01:27           0        12.6       0.059
  YS02001759           JUNCTION    870.88  1448.08     0  01:29        1.42        3.28      -0.005
  YS02001762           JUNCTION      0.00   749.49     0  01:38           0        1.86      -0.031
  YS02001765           JUNCTION      0.00   749.59     0  01:38           0        1.86      -0.008
  YS02001767           JUNCTION      0.00   749.53     0  01:38           0        1.86      -0.006
  YS02001770           JUNCTION   1220.92  1220.92     0  01:28        2.16         2.2       0.004
  YS02001774           JUNCTION      0.00   782.10     0  01:25           0       0.365       0.350
  YS02001779           JUNCTION      0.00   775.39     0  01:25           0       0.317      -0.331
  YS02001783           JUNCTION      0.00  1248.08     0  02:36           0        6.42      -0.001
  YS02001784           JUNCTION      0.00  1249.25     0  02:36           0        6.42       0.001
  YS02001786           JUNCTION      0.00  1251.63     0  02:36           0        6.42       0.002
  YS02001788           JUNCTION      0.00  1253.61     0  02:36           0        6.42       0.001
  YS02001790           JUNCTION      0.00  1254.76     0  02:36           0        6.42       0.018
  YS02001791           JUNCTION      0.00  1341.93     0  02:36           0        6.42      -0.034
  YS02001793           JUNCTION      0.00  1307.60     0  02:36           0        6.42       0.003
  YS02001882           JUNCTION      0.00    31.05     0  02:41           0      0.0144       3.543
  YS02001884           JUNCTION      0.00    53.18     0  02:41           0      0.0516       4.055
  YS02001887           JUNCTION   1971.92  1971.92     0  02:36        2.81        2.84       0.143
  YS02001890           JUNCTION      0.00  1972.32     0  02:36           0         2.8       0.149
  YS02001895           JUNCTION      0.00   518.49     0  02:34           0        1.96       0.094
  YS02001898           JUNCTION      0.00   520.83     0  02:41           0        1.95      -0.039
  YS02001901           JUNCTION      0.00   518.87     0  02:34           0        1.96       0.136
  YS02001904           JUNCTION      0.00   518.46     0  02:34           0        1.96       0.125
  YS02001907           JUNCTION      0.00  4014.86     0  02:36           0           8       0.204
  YS02001910           JUNCTION      0.00  1993.20     0  02:37           0        5.36       0.117
  YS02001915           JUNCTION   2475.65  3691.65     0  02:37        3.94        6.01       0.008
  YS02001918           JUNCTION      0.00  1247.53     0  02:37           0        2.07      -0.016
  YS02001920           JUNCTION      0.00  1246.89     0  02:37           0        2.07       0.012
  YS02001923           JUNCTION      0.00  1243.76     0  02:37           0        2.07       0.006
  YS02001926           JUNCTION      0.00  1242.26     0  02:37           0        2.07       0.006
  YS02001929           JUNCTION   1241.37  1241.37     0  02:37        2.07        2.07       0.000
  YS02006553           JUNCTION      0.00  1505.79     0  02:36           0         3.7       0.299
  YS02006556           JUNCTION      0.00  1503.79     0  02:37           0        3.72       0.203
  YS02006558           JUNCTION   2743.32  2743.32     0  02:37        4.12        7.14       0.038
  YS02006561           JUNCTION      0.00  1245.71     0  02:36           0        6.42       0.000
  YS02163301           JUNCTION      0.00   809.39     0  02:06           0        3.83       0.043
  YS02163601           JUNCTION      0.00  1242.04     0  01:25           0        5.25       0.102
  YS02164001           JUNCTION      0.00  1239.33     0  01:25           0        5.25       0.057
  CC-1                 OUTFALL       0.00   683.00     0  00:25           0        5.38       0.000
  CC-2                 OUTFALL       0.00   683.00     0  00:15           0        4.87       0.000
  JK-1                 OUTFALL       0.00  1000.00     0  01:40           0        3.03       0.000
  JK-2                 OUTFALL       0.00  1000.00     0  00:05           0        2.22       0.000
  WSC                  OUTFALL       0.00   554.02     0  03:01           0        4.69       0.000
  CC-storage           STORAGE       0.00  3635.77     0  01:27           0        14.8      -0.219
  JK-storage           STORAGE       0.00  1305.13     0  02:34           0        6.57      -0.272
  
  
  **********************
  Node Surcharge Summary
  **********************
  
  Surcharging occurs when water rises above the top of the highest conduit.
  ---------------------------------------------------------------------
                                               Max. Height   Min. Depth
                                   Hours       Above Crown    Below Rim
  Node                 Type      Surcharged         Meters       Meters
  ---------------------------------------------------------------------
  WS02006109           JUNCTION        1.77          0.693        1.127
  WS02006110           JUNCTION        0.89          0.781        1.069
  WS02006111           JUNCTION        0.01          0.856        1.014
  WS02006112           JUNCTION        0.98          1.680        0.000
  WS02006113           JUNCTION        0.01          0.705        1.225
  WS02006115           JUNCTION        0.01          0.682        1.568
  WS02006116           JUNCTION        0.01          0.053        2.237
  WS02006228           JUNCTION        1.76          0.810        1.390
  WS02006229           JUNCTION        1.77          0.510        1.940
  WS02006230           JUNCTION        0.90          0.224        1.346
  WS02006231           JUNCTION        1.05          0.854        0.676
  WS02006232           JUNCTION        1.78          0.959        0.521
  WS02006234           JUNCTION        1.34          1.240        0.000
  WS02006235           JUNCTION        1.73          1.290        0.000
  WS02006238           JUNCTION        1.76          1.418        0.012
  WS02006239           JUNCTION        1.74          1.290        0.000
  WS02006240           JUNCTION        1.76          1.199        0.191
  WS02006242           JUNCTION        1.78          0.820        0.000
  WS02006243           JUNCTION        1.75          0.682        0.088
  WS02006245           JUNCTION        1.75          0.635        0.215
  WS02006247           JUNCTION        1.75          0.543        0.217
  WS02006248           JUNCTION        1.74          0.380        0.000
  WS02006249           JUNCTION        1.74          0.390        0.000
  WS02006251           JUNCTION        1.13          0.699        0.481
  WS02006252           JUNCTION        2.01          1.100        0.000
  WS02006256           JUNCTION        5.86          2.050        0.000
  YS02001580           JUNCTION        0.82          0.450        0.000
  YS02001583           JUNCTION        0.83          0.500        0.000
  YS02001586           JUNCTION        1.01          0.510        0.000
  YS02001590           JUNCTION        1.09          0.750        0.000
  YS02001593           JUNCTION        1.10          0.751        0.089
  YS02001596           JUNCTION        1.21          0.999        0.071
  YS02001600           JUNCTION        1.37          1.190        0.000
  YS02001601           JUNCTION        1.75          1.440        0.000
  YS02001602           JUNCTION        1.68          1.270        0.000
  YS02001605           JUNCTION        1.61          1.180        0.000
  YS02001607           JUNCTION        1.08          0.680        0.000
  YS02001610           JUNCTION        1.12          0.680        0.000
  YS02001613           JUNCTION        1.08          0.700        0.000
  YS02001616           JUNCTION        1.03          0.610        0.000
  YS02001619           JUNCTION        1.02          0.610        0.000
  YS02001622           JUNCTION        1.01          0.620        0.000
  YS02001625           JUNCTION        1.22          0.780        0.000
  YS02001629           JUNCTION        0.96          0.470        0.000
  YS02001633           JUNCTION        1.24          1.053        0.007
  YS02001641           JUNCTION        1.20          0.990        0.110
  YS02001644           JUNCTION        1.18          0.920        0.000
  YS02001647           JUNCTION        0.98          0.885        0.015
  YS02001649           JUNCTION        1.14          1.050        0.000
  YS02001652           JUNCTION        0.89          0.984        0.146
  YS02001655           JUNCTION        0.60          1.200        0.000
  YS02001658           JUNCTION        0.30          0.783        0.517
  YS02001661           JUNCTION        0.04          0.591        0.799
  YS02001664           JUNCTION        0.01          0.365        0.945
  YS02001745           JUNCTION        0.01          0.963        0.387
  YS02001748           JUNCTION        0.19          1.190        0.000
  YS02001751           JUNCTION        0.42          1.200        0.000
  YS02001754           JUNCTION        0.76          1.150        0.000
  YS02001757           JUNCTION        1.22          1.210        0.000
  YS02001759           JUNCTION        1.11          1.208        0.002
  YS02001762           JUNCTION        1.07          1.150        0.000
  YS02001765           JUNCTION        1.02          1.099        0.001
  YS02001767           JUNCTION        0.96          1.029        0.001
  YS02001770           JUNCTION        0.94          0.920        0.000
  YS02001774           JUNCTION        1.05          1.007        0.043
  YS02001779           JUNCTION        0.73          0.680        0.000
  YS02001783           JUNCTION        1.12          0.631        0.969
  YS02001784           JUNCTION        1.09          0.470        1.020
  YS02001786           JUNCTION        0.92          0.161        1.269
  YS02001882           JUNCTION        1.04          0.830        0.000
  YS02001884           JUNCTION        1.06          0.870        0.000
  YS02001887           JUNCTION        1.11          0.950        0.000
  YS02001890           JUNCTION        1.13          0.760        0.000
  YS02001895           JUNCTION        1.02          0.574        0.176
  YS02001898           JUNCTION        1.01          0.535        0.205
  YS02001901           JUNCTION        1.09          0.685        0.185
  YS02001904           JUNCTION        1.07          0.681        0.169
  YS02001907           JUNCTION        1.50          0.950        0.000
  YS02001910           JUNCTION        1.17          1.018        0.082
  YS02001915           JUNCTION        1.04          1.000        0.000
  YS02001918           JUNCTION        0.90          0.810        0.000
  YS02001920           JUNCTION        0.92          0.999        0.141
  YS02001923           JUNCTION        0.40          0.648        0.172
  YS02001926           JUNCTION        0.44          0.840        0.060
  YS02001929           JUNCTION        0.28          0.780        0.000
  YS02006553           JUNCTION        1.52          1.185        0.005
  YS02006556           JUNCTION        1.30          1.350        0.000
  YS02006558           JUNCTION        1.28          1.400        0.000
  YS02006561           JUNCTION        0.86          0.375        0.775
  YS02163301           JUNCTION        1.23          0.945        0.085
  YS02163601           JUNCTION        1.28          1.080        0.000
  YS02164001           JUNCTION        1.20          1.009        0.091
  
  
  *********************
  Node Flooding Summary
  *********************
  
  Flooding refers to all water that overflows a node, whether it ponds or not.
  --------------------------------------------------------------------------
                                                             Total   Maximum
                                 Maximum   Time of Max       Flood    Ponded
                        Hours       Rate    Occurrence      Volume     Depth
  Node                 Flooded       LPS   days hr:min    10^6 ltr    Meters
  --------------------------------------------------------------------------
  WS02006112              0.01   1405.86      0  00:00       0.047     0.000
  WS02006234              0.01     34.56      0  03:00       0.000     0.000
  WS02006235              0.01     35.02      0  03:00       0.000     0.000
  WS02006239              0.01      9.74      0  03:00       0.000     0.000
  WS02006242              0.01     72.57      0  01:40       0.000     0.000
  WS02006248              0.01     20.94      0  02:40       0.000     0.000
  WS02006249              1.09    106.07      0  01:41       0.263     0.000
  WS02006252              0.01      0.91      0  01:32       0.000     0.000
  WS02006256              1.20    283.67      0  04:30       0.453     0.000
  YS02001580              0.01    245.16      0  01:24       0.002     0.000
  YS02001583              0.01    146.59      0  01:24       0.000     0.000
  YS02001586              0.66    463.74      0  01:32       0.570     0.000
  YS02001590              0.01      5.80      0  01:24       0.000     0.000
  YS02001600              0.01     24.13      0  01:24       0.000     0.000
  YS02001601              0.92   1379.16      0  01:30       1.936     0.000
  YS02001602              0.80     62.02      0  01:53       0.163     0.000
  YS02001605              0.01     11.61      0  01:25       0.000     0.000
  YS02001607              0.01    350.72      0  01:25       0.003     0.000
  YS02001610              0.71    769.34      0  01:32       1.035     0.000
  YS02001613              0.01    377.75      0  01:24       0.002     0.000
  YS02001616              0.01    374.07      0  01:24       0.007     0.000
  YS02001619              0.01     49.37      0  01:24       0.000     0.000
  YS02001622              0.01    283.99      0  01:24       0.001     0.000
  YS02001625              0.68   1373.21      0  01:33       1.626     0.000
  YS02001629              0.14    341.11      0  01:27       0.085     0.000
  YS02001644              0.25   1144.41      0  01:27       0.519     0.000
  YS02001649              0.01    218.19      0  01:26       0.005     0.000
  YS02001655              0.01    206.16      0  02:00       0.000     0.000
  YS02001748              0.01    102.03      0  01:26       0.000     0.000
  YS02001751              0.01    239.06      0  01:26       0.001     0.000
  YS02001754              0.01    401.55      0  01:25       0.001     0.000
  YS02001757              0.01     50.53      0  01:26       0.000     0.000
  YS02001762              0.01     20.59      0  01:26       0.000     0.000
  YS02001770              0.01     71.90      0  01:26       0.001     0.000
  YS02001779              0.21    746.80      0  01:25       0.297     0.000
  YS02001882              0.01      0.33      0  02:35       0.000     0.000
  YS02001884              0.01      0.67      0  02:34       0.000     0.000
  YS02001887              0.01      2.66      0  02:36       0.000     0.000
  YS02001890              0.47   1456.23      0  02:36       0.840     0.000
  YS02001907              0.83   4013.30      0  02:37       4.970     0.000
  YS02001915              0.22   1698.91      0  02:37       0.646     0.000
  YS02001918              0.03     30.53      0  02:37       0.001     0.000
  YS02001929              0.01      0.03      0  02:34       0.000     0.000
  YS02006556              0.01      0.55      0  02:34       0.000     0.000
  YS02006558              0.01      2.42      0  02:34       0.000     0.000
  YS02163601              0.01      7.89      0  01:26       0.000     0.000
  
  
  **********************
  Storage Volume Summary
  **********************
  
  --------------------------------------------------------------------------------------------------
                         Average     Avg  Evap Exfil       Maximum     Max    Time of Max    Maximum
                          Volume    Pcnt  Pcnt  Pcnt        Volume    Pcnt     Occurrence    Outflow
  Storage Unit           1000 m3    Full  Loss  Loss       1000 m3    Full    days hr:min        LPS
  --------------------------------------------------------------------------------------------------
  CC-storage               2.491      39     0     0         4.780      75       0  02:12    1766.00
  JK-storage               0.089      31     0     0         0.212      73       0  01:56    2300.00
  
  
  ***********************
  Outfall Loading Summary
  ***********************
  
  -----------------------------------------------------------
                         Flow       Avg       Max       Total
                         Freq      Flow      Flow      Volume
  Outfall Node           Pcnt       LPS       LPS    10^6 ltr
  -----------------------------------------------------------
  CC-1                  45.22    683.00    683.00       5.383
  CC-2                  41.86    683.00    683.00       4.868
  JK-1                  15.77   1000.00   1000.00       3.034
  JK-2                  12.22   1000.00   1000.00       2.216
  WSC                   99.99    219.99    554.02       4.693
  -----------------------------------------------------------
  System                43.01   3585.99    554.02      20.194
  
  
  ********************
  Link Flow Summary
  ********************
  
  -----------------------------------------------------------------------------
                                 Maximum  Time of Max   Maximum    Max/    Max/
                                  |Flow|   Occurrence   |Veloc|    Full    Full
  Link                 Type          LPS  days hr:min     m/sec    Flow   Depth
  -----------------------------------------------------------------------------
  1                    CONDUIT    554.02     0  03:01      2.83    0.19    0.30
  WS02003060WS02003069 CONDUIT    552.06     0  02:59      1.64    0.22    0.34
  WS02003066WSF200     CONDUIT    535.50     0  02:58      2.85    0.09    0.22
  WS02003067WS02003066 CONDUIT    535.49     0  02:58      1.21    0.17    0.42
  WS02003069WS02003072 CONDUIT    552.30     0  03:00      1.37    0.27    0.39
  WS02003072WS02003073 CONDUIT    552.25     0  03:00      1.43    1.19    0.37
  WS02004401WS02004402 CONDUIT   1248.69     0  00:01      2.52    1.50    0.86
  WS02004402WS02004403 CONDUIT    929.44     0  00:01      2.21    1.34    0.88
  WS02004403WS02004404 CONDUIT    877.02     0  00:01      2.01    0.63    0.93
  WS02004404WS02004405 CONDUIT    827.31     0  00:01      2.30    8.11    0.96
  WS02004405WS02004406 CONDUIT    768.45     0  00:02      2.19    1.52    0.96
  WS02004406WS02004407 CONDUIT    536.13     0  02:50      1.04    0.24    0.63
  WS02004407WS02004409 CONDUIT    535.94     0  02:50      2.06    0.19    0.48
  WS02004409WS02004410 CONDUIT    535.75     0  02:50      1.39    0.69    0.67
  WS02004410WS02004411 CONDUIT    535.67     0  02:51      1.32    0.73    0.69
  WS02004411WS02004412 CONDUIT    535.57     0  02:57      1.28    0.76    0.69
  WS02004412WS02004413 CONDUIT    535.54     0  03:00      1.25    0.36    0.78
  WS02004413WS02003067 CONDUIT    535.46     0  02:58      1.11    0.23    0.59
  WS02006109WS02006110 CONDUIT   1446.81     0  00:00      2.88    2.78    1.00
  WS02006110WS02006113 CONDUIT    570.82     0  03:08      1.37    0.52    1.00
  WS02006111WS02006112 CONDUIT   2307.30     0  00:00      9.18    1.10    1.00
  WS02006112WS02006115 CONDUIT    953.54     0  00:00      1.24    0.56    1.00
  WS02006113WS02006111 CONDUIT   1180.41     0  00:00      2.47    1.41    1.00
  WS02006115WS02006116 CONDUIT   1264.47     0  00:00      1.74    1.62    1.00
  WS02006116WS02004401 CONDUIT   1786.04     0  00:00      2.94    2.46    0.84
  WS02006228WS02006109 CONDUIT    869.18     0  00:00      1.91    3.80    1.00
  WS02006229WS02006228 CONDUIT    553.76     0  03:01      1.10    1.83    1.00
  WS02006230WS02006229 CONDUIT    696.39     0  00:00      1.89   15.50    1.00
  WS02006231WS02006230 CONDUIT    580.74     0  02:36      1.91    8.81    1.00
  WS02006232WS02006231 CONDUIT    575.46     0  03:20      1.80    1.21    1.00
  WS02006234WS02006232 CONDUIT    574.68     0  03:20      1.49    1.16    1.00
  WS02006235WS02006234 CONDUIT    569.67     0  03:20      1.48    6.01    1.00
  WS02006238WS02006235 CONDUIT    422.75     0  03:05      1.46    0.94    1.00
  WS02006239WS02006238 CONDUIT    422.58     0  02:15      1.10    1.35    1.00
  WS02006240WS02006239 CONDUIT    421.58     0  02:15      1.26    1.33    1.00
  WS02006242WS02006240 CONDUIT    419.01     0  03:05      1.15    1.66    1.00
  WS02006243WS02006242 CONDUIT    419.14     0  03:05      1.27    0.90    1.00
  WS02006245WS02006243 CONDUIT    418.49     0  03:05      1.41    1.24    1.00
  WS02006247WS02006245 CONDUIT    418.14     0  02:15      1.31    3.32    1.00
  WS02006248WS02006247 CONDUIT    418.30     0  02:00      1.31    0.91    1.00
  WS02006249WS02006248 CONDUIT    418.60     0  01:45      1.35    2.29    1.00
  WS02006251WS02006249 CONDUIT    429.72     0  01:41      2.10    1.24    1.00
  WS02006252WS02006251 CONDUIT    408.17     0  01:41     17.47    1.50    1.00
  WS02006256WS02006235 CONDUIT    287.08     0  05:15      4.21    3.04    1.00
  WSF200WS02003060     CONDUIT    535.55     0  02:58      2.06    0.12    0.28
  YS02001580YS02001583 CONDUIT    291.33     0  01:24      1.25    1.13    1.00
  YS02001583YS02001586 CONDUIT    323.26     0  01:24      1.37    0.49    1.00
  YS02001586YS02001590 CONDUIT    318.03     0  01:42      1.36    0.56    1.00
  YS02001590YS02001593 CONDUIT    318.01     0  01:55      1.12    2.00    1.00
  YS02001593YS02001596 CONDUIT    317.99     0  01:42      1.73    0.50    1.00
  YS02001596YS02001600 CONDUIT    317.98     0  01:54      1.21    0.62    1.00
  YS02001600YS02001601 CONDUIT    317.87     0  01:57      1.12    0.55    1.00
  YS02001601YS02001602 CONDUIT    601.83     0  01:24      2.13    2.17    1.00
  YS02001602YS02001605 CONDUIT    601.70     0  01:24      2.13   12.73    1.00
  YS02001605YS02001607 CONDUIT    601.54     0  01:24      2.13    3.30    1.00
  YS02001607YS02001610 CONDUIT    578.00     0  01:24      0.82    0.55    1.00
  YS02001610YS02001613 CONDUIT    536.05     0  01:24      0.77    0.62    1.00
  YS02001613YS02001616 CONDUIT    489.16     0  01:24      0.74    0.42    1.00
  YS02001616YS02001619 CONDUIT    454.54     0  02:19      0.66    0.79    1.00
  YS02001619YS02001622 CONDUIT    973.91     0  01:24      1.59    1.44    1.00
  YS02001622YS02001625 CONDUIT    950.39     0  01:31      1.21    0.51    1.00
  YS02001625YS02001629 CONDUIT    809.76     0  02:06      1.03    0.39    1.00
  YS02001629YS02163301 CONDUIT    809.39     0  02:06      1.03    1.00    1.00
  YS02001633YS02163601 CONDUIT   1242.04     0  01:25      1.58    1.30    1.00
  YS02001641YS02001644 CONDUIT   1232.96     0  01:25      1.57    3.99    1.00
  YS02001644YS02001647 CONDUIT   1929.06     0  01:25      2.46    1.13    1.00
  YS02001647YS02001649 CONDUIT   1926.80     0  01:25      2.45    1.02    1.00
  YS02001649YS02001757 CONDUIT   2103.07     0  01:25      2.68    1.28    1.00
  YS02001652YS02001649 CONDUIT   1101.99     0  01:27      1.40    0.55    1.00
  YS02001655YS02001652 CONDUIT   1100.35     0  01:27      1.90    0.53    1.00
  YS02001658YS02001655 CONDUIT   1094.04     0  01:27      2.27    0.46    1.00
  YS02001661YS02001658 CONDUIT   1090.32     0  01:27      2.69    0.43    1.00
  YS02001664YS02001661 CONDUIT   1086.54     0  01:27      2.73    0.34    1.00
  YS02001745YS02001748 CONDUIT    766.78     0  01:26      2.62    0.30    1.00
  YS02001748YS02001751 CONDUIT    768.10     0  01:26      2.11    0.39    1.00
  YS02001751YS02001754 CONDUIT    776.20     0  01:26      1.90    0.37    1.00
  YS02001754YS02001757 CONDUIT    807.02     0  01:26      1.03    0.33    1.00
  YS02001757CaochengTiaoxuchi CONDUIT   3635.77     0  01:27      5.23    1.57    1.00
  YS02001759YS02001757 CONDUIT   1447.01     0  01:29      1.84    1.03    1.00
  YS02001762YS02001759 CONDUIT    749.74     0  01:38      0.95    0.86    1.00
  YS02001765YS02001762 CONDUIT    749.49     0  01:38      0.95    0.70    1.00
  YS02001767YS02001765 CONDUIT    749.59     0  01:38      0.95    0.94    1.00
  YS02001770YS02001767 CONDUIT    749.53     0  01:38      1.13    2.97    1.00
  YS02001774YS02001770 CONDUIT    782.10     0  01:25      1.00    0.50    1.00
  YS02001779YS02001774 CONDUIT    775.39     0  01:25      1.01    0.39    1.00
  YS02001783YS02001784 CONDUIT   1249.25     0  02:36      2.49    1.72    1.00
  YS02001784YS02001785 CONDUIT   1251.63     0  02:36      2.49    2.91    1.00
  YS02001786YS02001788 CONDUIT   1253.61     0  02:36      2.62    2.42    0.91
  YS02001788YS02001790 CONDUIT   1254.76     0  02:36      2.80    0.92    0.86
  YS02001790YS02001791 CONDUIT   1341.93     0  02:36      3.49    1.46    0.72
  YS02001791YS02001793 CONDUIT   1307.60     0  02:36      6.75    0.56    0.47
  YS02001793JiankangQianchi CONDUIT   1305.13     0  02:34      2.60    0.10    0.67
  YS02001882YS02001884 CONDUIT     31.05     0  02:41      0.23    0.04    1.00
  YS02001884YS02001887 CONDUIT     53.18     0  02:41      0.19    0.07    1.00
  YS02001887YS02001890 CONDUIT   1972.32     0  02:36      2.51    3.38    1.00
  YS02001890YS02001895 CONDUIT    518.49     0  02:34      0.66    0.24    1.00
  YS02001895YS02001898 CONDUIT    520.83     0  02:41      0.66    0.90    1.00
  YS02001898YS02001901 CONDUIT    518.87     0  02:34      0.66    0.33    1.00
  YS02001901YS02001904 CONDUIT    518.46     0  02:34      0.66    0.80    1.00
  YS02001904YS02001907 CONDUIT    519.28     0  02:34      0.66    0.18    1.00
  YS02001907YS02006553 CONDUIT   1508.92     0  02:36      1.68    1.78    1.00
  YS02001910YS02001907 CONDUIT   1993.03     0  02:42      2.54    1.12    1.00
  YS02001915YS02001910 CONDUIT   1993.20     0  02:37      2.54    0.99    1.00
  YS02001918YS02001915 CONDUIT   1218.74     0  02:37      1.55    0.67    1.00
  YS02001920YS02001918 CONDUIT   1247.53     0  02:37      1.59    1.21    1.00
  YS02001923YS02001920 CONDUIT   1246.89     0  02:37      1.59    0.56    1.00
  YS02001926YS02001923 CONDUIT   1243.76     0  02:37      1.58    1.78    1.00
  YS02001929YS02001926 CONDUIT   1242.26     0  02:37      1.58    0.59    1.00
  YS02006553YS02006556 CONDUIT   1505.79     0  02:36      1.92    1.29    1.00
  YS02006556YS02006558 CONDUIT   1503.79     0  02:37      1.91    1.19    1.00
  YS02006558YS02006561 CONDUIT   1245.71     0  02:36      4.41    2.75    1.00
  YS02006561YS02001783 CONDUIT   1248.08     0  02:36      2.48    0.65    1.00
  YS02163301YS02001633 CONDUIT    810.44     0  02:06      1.03    0.76    1.00
  YS02163601YS02164001 CONDUIT   1239.33     0  01:25      1.58    1.10    1.00
  YS02164001YS02001641 CONDUIT   1230.16     0  01:25      1.57    1.68    1.00
  CC-R1                PUMP       683.00     0  00:25              1.00
  CC-R2                PUMP       683.00     0  00:15              1.00
  CC-S1                PUMP       200.00     0  00:20              1.00
  CC-S2                PUMP       200.00     0  00:10              1.00
  JK-R1                PUMP      1000.00     0  01:40              1.00
  JK-R2                PUMP      1000.00     0  00:05              1.00
  JK-S                 PUMP       300.00     0  00:15              1.00
  
  
  ***************************
  Flow Classification Summary
  ***************************
  
  -------------------------------------------------------------------------------------
                      Adjusted    ---------- Fraction of Time in Flow Class ---------- 
                       /Actual         Up    Down  Sub   Sup   Up    Down  Norm  Inlet 
  Conduit               Length    Dry  Dry   Dry   Crit  Crit  Crit  Crit  Ltd   Ctrl  
  -------------------------------------------------------------------------------------
  1                       1.00   0.00  0.00  0.00  0.00  1.00  0.00  0.00  0.47  0.00
  WS02003060WS02003069    1.00   0.00  0.00  0.00  0.97  0.03  0.00  0.00  0.73  0.00
  WS02003066WSF200        1.00   0.01  0.00  0.00  0.00  0.99  0.00  0.00  0.85  0.00
  WS02003067WS02003066    1.00   0.01  0.00  0.00  0.99  0.00  0.00  0.00  0.00  0.00
  WS02003069WS02003072    1.00   0.00  0.00  0.00  1.00  0.00  0.00  0.00  0.76  0.00
  WS02003072WS02003073    1.00   0.00  0.00  0.00  0.00  0.00  0.00  1.00  0.00  0.00
  WS02004401WS02004402    1.00   0.00  0.00  0.00  1.00  0.00  0.00  0.00  0.00  0.00
  WS02004402WS02004403    1.00   0.00  0.00  0.00  1.00  0.00  0.00  0.00  0.00  0.00
  WS02004403WS02004404    1.00   0.00  0.00  0.00  1.00  0.00  0.00  0.00  0.00  0.00
  WS02004404WS02004405    1.00   0.00  0.00  0.00  1.00  0.00  0.00  0.00  0.00  0.00
  WS02004405WS02004406    1.00   0.00  0.00  0.00  1.00  0.00  0.00  0.00  0.00  0.00
  WS02004406WS02004407    1.00   0.00  0.00  0.00  1.00  0.00  0.00  0.00  0.00  0.00
  WS02004407WS02004409    1.00   0.00  0.00  0.00  0.99  0.01  0.00  0.00  0.99  0.00
  WS02004409WS02004410    1.00   0.00  0.00  0.00  1.00  0.00  0.00  0.00  0.00  0.00
  WS02004410WS02004411    1.00   0.00  0.00  0.00  1.00  0.00  0.00  0.00  0.00  0.00
  WS02004411WS02004412    1.00   0.00  0.00  0.00  1.00  0.00  0.00  0.00  0.00  0.00
  WS02004412WS02004413    1.00   0.00  0.00  0.00  0.99  0.00  0.00  0.00  0.00  0.00
  WS02004413WS02003067    1.00   0.01  0.00  0.00  0.00  0.00  0.99  0.00  0.00  0.00
  WS02006109WS02006110    1.00   0.00  0.00  0.00  1.00  0.00  0.00  0.00  0.00  0.00
  WS02006110WS02006113    1.00   0.00  0.00  0.00  1.00  0.00  0.00  0.00  0.00  0.00
  WS02006111WS02006112    1.00   0.00  0.00  0.00  1.00  0.00  0.00  0.00  1.00  0.00
  WS02006112WS02006115    1.00   0.00  0.00  0.00  1.00  0.00  0.00  0.00  0.00  0.00
  WS02006113WS02006111    1.00   0.00  0.00  0.00  0.00  1.00  0.00  0.00  0.11  0.00
  WS02006115WS02006116    1.00   0.00  0.00  0.00  1.00  0.00  0.00  0.00  0.00  0.00
  WS02006116WS02004401    1.00   0.00  0.00  0.00  1.00  0.00  0.00  0.00  0.00  0.00
  WS02006228WS02006109    1.00   0.00  0.00  0.00  1.00  0.00  0.00  0.00  0.00  0.00
  WS02006229WS02006228    1.00   0.00  0.00  0.00  1.00  0.00  0.00  0.00  0.00  0.00
  WS02006230WS02006229    1.00   0.00  0.00  0.00  1.00  0.00  0.00  0.00  0.04  0.00
  WS02006231WS02006230    1.00   0.00  0.00  0.00  0.37  0.00  0.63  0.00  0.00  0.00
  WS02006232WS02006231    1.00   0.00  0.00  0.00  0.99  0.00  0.01  0.00  0.00  0.00
  WS02006234WS02006232    1.00   0.00  0.00  0.00  1.00  0.00  0.00  0.00  0.15  0.00
  WS02006235WS02006234    1.00   0.00  0.00  0.00  0.87  0.00  0.12  0.00  0.00  0.00
  WS02006238WS02006235    1.00   0.00  0.00  0.00  1.00  0.00  0.00  0.00  0.00  0.00
  WS02006239WS02006238    1.00   0.00  0.00  0.00  1.00  0.00  0.00  0.00  0.25  0.00
  WS02006240WS02006239    1.00   0.03  0.00  0.00  0.73  0.00  0.00  0.24  0.03  0.00
  WS02006242WS02006240    1.00   0.02  0.01  0.00  0.93  0.00  0.03  0.00  0.00  0.00
  WS02006243WS02006242    1.00   0.02  0.00  0.00  0.95  0.00  0.00  0.03  0.63  0.00
  WS02006245WS02006243    1.00   0.02  0.00  0.00  0.84  0.00  0.00  0.15  0.00  0.00
  WS02006247WS02006245    1.00   0.02  0.00  0.00  0.94  0.00  0.00  0.05  0.00  0.00
  WS02006248WS02006247    1.00   0.01  0.00  0.00  0.95  0.00  0.00  0.03  0.55  0.00
  WS02006249WS02006248    1.00   0.01  0.00  0.00  0.63  0.00  0.35  0.00  0.00  0.00
  WS02006251WS02006249    1.00   0.01  0.00  0.00  0.97  0.02  0.00  0.00  0.60  0.00
  WS02006252WS02006251    1.00   0.03  0.31  0.00  0.21  0.00  0.45  0.00  0.00  0.00
  WS02006256WS02006235    1.00   0.00  0.00  0.00  0.97  0.02  0.00  0.00  0.01  0.00
  WSF200WS02003060        1.00   0.00  0.01  0.00  0.33  0.66  0.00  0.00  0.71  0.00
  YS02001580YS02001583    1.00   0.23  0.41  0.00  0.36  0.00  0.00  0.00  0.69  0.00
  YS02001583YS02001586    1.00   0.33  0.20  0.00  0.46  0.00  0.00  0.00  0.69  0.00
  YS02001586YS02001590    1.00   0.20  0.00  0.00  0.58  0.02  0.00  0.20  0.32  0.00
  YS02001590YS02001593    1.00   0.20  0.00  0.00  0.24  0.00  0.56  0.00  0.00  0.00
  YS02001593YS02001596    1.00   0.20  0.00  0.00  0.27  0.01  0.00  0.51  0.02  0.00
  YS02001596YS02001600    1.00   0.20  0.00  0.00  0.37  0.01  0.00  0.42  0.04  0.00
  YS02001600YS02001601    1.00   0.20  0.00  0.00  0.80  0.00  0.00  0.00  0.59  0.00
  YS02001601YS02001602    1.00   0.20  0.00  0.00  0.80  0.00  0.00  0.00  0.00  0.00
  YS02001602YS02001605    1.00   0.20  0.00  0.00  0.80  0.00  0.00  0.00  0.00  0.00
  YS02001605YS02001607    1.00   0.20  0.00  0.00  0.80  0.00  0.00  0.00  0.00  0.00
  YS02001607YS02001610    1.00   0.20  0.00  0.00  0.80  0.00  0.00  0.00  0.01  0.00
  YS02001610YS02001613    1.00   0.20  0.00  0.00  0.80  0.00  0.00  0.00  0.00  0.00
  YS02001613YS02001616    1.00   0.20  0.00  0.00  0.80  0.00  0.00  0.00  0.00  0.00
  YS02001616YS02001619    1.00   0.20  0.00  0.00  0.80  0.00  0.00  0.00  0.00  0.00
  YS02001619YS02001622    1.00   0.20  0.00  0.00  0.79  0.01  0.00  0.00  0.29  0.00
  YS02001622YS02001625    1.00   0.20  0.00  0.00  0.80  0.00  0.00  0.00  0.03  0.00
  YS02001625YS02001629    1.00   0.20  0.02  0.00  0.32  0.00  0.46  0.00  0.00  0.00
  YS02001629YS02163301    1.00   0.21  0.00  0.00  0.79  0.00  0.00  0.00  0.00  0.00
  YS02001633YS02163601    1.00   0.20  0.00  0.00  0.80  0.00  0.00  0.00  0.01  0.00
  YS02001641YS02001644    1.00   0.20  0.00  0.00  0.80  0.00  0.00  0.00  0.00  0.00
  YS02001644YS02001647    1.00   0.20  0.01  0.00  0.79  0.00  0.00  0.00  0.00  0.00
  YS02001647YS02001649    1.00   0.21  0.01  0.00  0.53  0.26  0.00  0.00  0.57  0.00
  YS02001649YS02001757    1.00   0.00  0.21  0.00  0.52  0.28  0.00  0.00  0.18  0.00
  YS02001652YS02001649    1.00   0.21  0.00  0.00  0.78  0.01  0.00  0.00  0.59  0.00
  YS02001655YS02001652    1.00   0.21  0.00  0.00  0.36  0.00  0.00  0.43  0.05  0.00
  YS02001658YS02001655    1.00   0.20  0.00  0.00  0.57  0.22  0.00  0.00  0.67  0.00
  YS02001661YS02001658    1.00   0.20  0.00  0.00  0.43  0.36  0.00  0.00  0.72  0.00
  YS02001664YS02001661    1.00   0.20  0.00  0.00  0.64  0.16  0.00  0.00  0.85  0.00
  YS02001745YS02001748    1.00   0.20  0.00  0.00  0.24  0.02  0.00  0.55  0.06  0.00
  YS02001748YS02001751    1.00   0.20  0.00  0.00  0.62  0.18  0.00  0.00  0.65  0.00
  YS02001751YS02001754    1.00   0.20  0.00  0.00  0.34  0.00  0.00  0.45  0.04  0.00
  YS02001754YS02001757    1.00   0.00  0.20  0.00  0.79  0.01  0.00  0.00  0.63  0.00
  YS02001757CaochengTiaoxuchi    1.00   0.00  0.00  0.00  0.97  0.03  0.00  0.00  0.75  0.00
  YS02001759YS02001757    1.00   0.00  0.20  0.00  0.79  0.01  0.00  0.00  0.55  0.00
  YS02001762YS02001759    1.00   0.20  0.00  0.00  0.80  0.00  0.00  0.00  0.01  0.00
  YS02001765YS02001762    1.00   0.20  0.00  0.00  0.80  0.00  0.00  0.00  0.60  0.00
  YS02001767YS02001765    1.00   0.20  0.00  0.00  0.80  0.00  0.00  0.00  0.00  0.00
  YS02001770YS02001767    1.00   0.20  0.00  0.00  0.80  0.00  0.00  0.00  0.00  0.00
  YS02001774YS02001770    1.00   0.20  0.00  0.00  0.68  0.00  0.12  0.00  0.01  0.00
  YS02001779YS02001774    1.00   0.20  0.30  0.00  0.50  0.00  0.00  0.00  0.60  0.00
  YS02001783YS02001784    1.00   0.21  0.00  0.00  0.78  0.00  0.00  0.00  0.53  0.00
  YS02001784YS02001785    1.00   0.21  0.00  0.00  0.79  0.00  0.00  0.00  0.35  0.00
  YS02001786YS02001788    1.00   0.22  0.00  0.00  0.50  0.28  0.00  0.00  0.00  0.00
  YS02001788YS02001790    1.00   0.22  0.00  0.00  0.21  0.57  0.00  0.00  0.59  0.00
  YS02001790YS02001791    1.00   0.22  0.00  0.00  0.00  0.78  0.00  0.00  0.14  0.00
  YS02001791YS02001793    1.00   0.22  0.00  0.00  0.00  0.78  0.00  0.00  0.02  0.00
  YS02001793JiankangQianchi    1.00   0.00  0.22  0.00  0.68  0.10  0.00  0.00  0.76  0.00
  YS02001882YS02001884    1.00   0.21  0.00  0.00  0.79  0.00  0.00  0.00  0.00  0.00
  YS02001884YS02001887    1.00   0.20  0.00  0.00  0.80  0.00  0.00  0.00  0.00  0.00
  YS02001887YS02001890    1.00   0.20  0.00  0.00  0.80  0.00  0.00  0.00  0.00  0.00
  YS02001890YS02001895    1.00   0.20  0.01  0.00  0.79  0.00  0.00  0.00  0.00  0.00
  YS02001895YS02001898    1.00   0.21  0.00  0.00  0.78  0.00  0.01  0.00  0.00  0.00
  YS02001898YS02001901    1.00   0.21  0.00  0.00  0.79  0.00  0.00  0.00  0.00  0.00
  YS02001901YS02001904    1.00   0.21  0.00  0.00  0.79  0.00  0.00  0.00  0.00  0.00
  YS02001904YS02001907    1.00   0.20  0.01  0.00  0.79  0.00  0.00  0.00  0.00  0.00
  YS02001907YS02006553    1.00   0.20  0.00  0.00  0.80  0.00  0.00  0.00  0.00  0.00
  YS02001910YS02001907    1.00   0.20  0.00  0.00  0.79  0.00  0.00  0.01  0.01  0.00
  YS02001915YS02001910    1.00   0.20  0.00  0.00  0.79  0.01  0.00  0.00  0.01  0.00
  YS02001918YS02001915    1.00   0.20  0.01  0.00  0.79  0.00  0.00  0.00  0.64  0.00
  YS02001920YS02001918    1.00   0.20  0.01  0.00  0.79  0.00  0.00  0.00  0.00  0.00
  YS02001923YS02001920    1.00   0.20  0.00  0.00  0.80  0.00  0.00  0.00  0.70  0.00
  YS02001926YS02001923    1.00   0.20  0.00  0.00  0.20  0.00  0.60  0.00  0.00  0.00
  YS02001929YS02001926    1.00   0.20  0.00  0.00  0.80  0.00  0.00  0.00  0.75  0.00
  YS02006553YS02006556    1.00   0.20  0.00  0.00  0.80  0.00  0.00  0.00  0.00  0.00
  YS02006556YS02006558    1.00   0.20  0.00  0.00  0.80  0.00  0.00  0.00  0.00  0.00
  YS02006558YS02006561    1.00   0.21  0.00  0.00  0.19  0.60  0.00  0.00  0.14  0.00
  YS02006561YS02001783    1.00   0.21  0.00  0.00  0.32  0.47  0.00  0.00  0.62  0.00
  YS02163301YS02001633    1.00   0.20  0.01  0.00  0.79  0.00  0.00  0.00  0.00  0.00
  YS02163601YS02164001    1.00   0.20  0.00  0.00  0.79  0.00  0.00  0.00  0.01  0.00
  YS02164001YS02001641    1.00   0.20  0.01  0.00  0.79  0.00  0.00  0.00  0.00  0.00
  
  
  *************************
  Conduit Surcharge Summary
  *************************
  
  ----------------------------------------------------------------------------
                                                           Hours        Hours 
                         --------- Hours Full --------   Above Full   Capacity
  Conduit                Both Ends  Upstream  Dnstream   Normal Flow   Limited
  ----------------------------------------------------------------------------
  WS02003072WS02003073        0.01      0.01      0.01      1.38         0.01
  WS02004401WS02004402        0.01      0.01      0.01      0.01         0.01
  WS02004402WS02004403        0.01      0.01      0.01      0.02         0.01
  WS02004404WS02004405        0.01      0.01      0.01      2.58         0.01
  WS02004405WS02004406        0.01      0.01      0.01      0.85         0.01
  WS02006109WS02006110        0.89      0.89      1.79      1.04         0.01
  WS02006110WS02006113        0.01      0.01      1.78      0.01         0.01
  WS02006111WS02006112        0.01      0.01      2.00      0.01         0.01
  WS02006112WS02006115        0.01      0.01      0.97      0.01         0.01
  WS02006113WS02006111        0.01      0.01      0.01      0.01         0.01
  WS02006115WS02006116        0.01      0.01      0.01      0.01         0.01
  WS02006116WS02004401        0.01      0.01      0.01      0.02         0.01
  WS02006228WS02006109        1.76      1.79      1.77      2.04         1.76
  WS02006229WS02006228        1.76      1.77      1.76      1.94         1.75
  WS02006230WS02006229        1.83      1.92      1.84      2.84         1.83
  WS02006231WS02006230        0.90      0.90      1.10      2.51         0.01
  WS02006232WS02006231        1.05      1.05      1.78      1.12         0.01
  WS02006234WS02006232        1.71      1.71      1.78      1.11         1.08
  WS02006235WS02006234        1.34      1.34      1.72      2.41         0.02
  WS02006238WS02006235        1.74      1.74      1.78      0.01         0.01
  WS02006239WS02006238        1.76      1.77      1.76      1.90         1.57
  WS02006240WS02006239        1.74      1.76      1.74      1.89         1.47
  WS02006242WS02006240        1.76      1.76      1.83      2.00         0.01
  WS02006243WS02006242        1.75      1.75      1.78      0.01         0.05
  WS02006245WS02006243        1.75      1.75      1.75      0.96         0.90
  WS02006247WS02006245        1.75      1.75      1.75      2.34         1.73
  WS02006248WS02006247        1.74      1.74      1.75      0.01         0.05
  WS02006249WS02006248        1.74      1.74      1.74      2.32         0.01
  WS02006251WS02006249        1.74      1.74      1.74      1.92         1.67
  WS02006252WS02006251        1.98      1.98      2.01      1.98         0.01
  WS02006256WS02006235        2.43      2.45      5.78      1.23         0.01
  YS02001580YS02001583        0.82      0.82      0.89      0.01         0.01
  YS02001583YS02001586        0.83      0.83      1.01      0.01         0.01
  YS02001586YS02001590        1.02      1.02      1.09      0.01         0.01
  YS02001590YS02001593        1.09      1.10      1.11      1.19         0.01
  YS02001593YS02001596        1.10      1.10      1.21      0.01         0.01
  YS02001596YS02001600        1.25      1.25      1.37      0.01         0.01
  YS02001600YS02001601        1.45      1.45      1.75      0.01         0.01
  YS02001601YS02001602        1.68      1.68      1.77      1.38         0.01
  YS02001602YS02001605        1.61      1.61      1.68      2.35         0.01
  YS02001605YS02001607        1.55      1.61      1.55      1.72         1.55
  YS02001607YS02001610        1.08      1.08      1.12      0.01         0.01
  YS02001610YS02001613        1.08      1.08      1.12      0.01         0.01
  YS02001613YS02001616        1.03      1.03      1.08      0.01         0.01
  YS02001616YS02001619        1.01      1.02      1.03      0.01         0.01
  YS02001619YS02001622        1.01      1.02      1.01      1.07         0.96
  YS02001622YS02001625        1.01      1.01      1.22      0.01         0.01
  YS02001625YS02001629        0.96      0.96      1.22      0.01         0.01
  YS02001629YS02163301        1.21      1.21      1.23      0.01         0.15
  YS02001633YS02163601        1.24      1.24      1.28      0.38         0.34
  YS02001641YS02001644        1.18      1.20      1.18      1.79         1.17
  YS02001644YS02001647        0.98      0.98      1.18      0.02         0.01
  YS02001647YS02001649        0.98      0.98      1.14      0.01         0.01
  YS02001649YS02001757        1.13      1.14      1.22      0.03         0.07
  YS02001652YS02001649        0.93      0.93      1.14      0.01         0.01
  YS02001655YS02001652        0.60      0.60      0.89      0.01         0.01
  YS02001658YS02001655        0.30      0.30      0.60      0.01         0.01
  YS02001661YS02001658        0.04      0.04      0.30      0.01         0.01
  YS02001664YS02001661        0.01      0.01      0.10      0.01         0.01
  YS02001745YS02001748        0.01      0.01      0.19      0.01         0.01
  YS02001748YS02001751        0.26      0.26      0.42      0.01         0.01
  YS02001751YS02001754        0.42      0.42      0.76      0.01         0.01
  YS02001754YS02001757        0.83      0.83      1.22      0.01         0.01
  YS02001757CaochengTiaoxuchi        1.09      1.22      1.75      0.46         0.33
  YS02001759YS02001757        1.11      1.11      1.22      0.06         0.06
  YS02001762YS02001759        1.07      1.07      1.11      0.01         0.01
  YS02001765YS02001762        1.02      1.02      1.07      0.01         0.01
  YS02001767YS02001765        0.96      0.96      1.02      0.01         0.01
  YS02001770YS02001767        0.96      0.97      0.96      0.67         0.66
  YS02001774YS02001770        0.94      0.94      1.05      0.01         0.01
  YS02001779YS02001774        0.73      0.73      1.05      0.01         0.01
  YS02001783YS02001784        1.09      1.12      1.09      1.36         1.09
  YS02001784YS02001785        0.92      1.09      0.92      1.64         0.92
  YS02001786YS02001788        0.01      0.92      0.01      1.55         0.01
  YS02001790YS02001791        0.01      0.01      0.01      1.06         0.01
  YS02001793JiankangQianchi        0.01      0.01      5.93      0.01         0.01
  YS02001882YS02001884        1.04      1.04      1.06      0.01         0.01
  YS02001884YS02001887        1.09      1.09      1.11      0.01         0.01
  YS02001887YS02001890        1.13      1.13      1.15      0.39         0.01
  YS02001890YS02001895        1.02      1.02      1.17      0.01         0.01
  YS02001895YS02001898        1.01      1.01      1.02      0.01         0.01
  YS02001898YS02001901        1.03      1.03      1.09      0.01         0.01
  YS02001901YS02001904        1.08      1.08      1.09      0.01         0.01
  YS02001904YS02001907        1.07      1.07      1.53      0.01         0.01
  YS02001907YS02006553        1.65      1.65      1.70      0.10         0.10
  YS02001910YS02001907        1.17      1.17      1.50      0.26         0.26
  YS02001915YS02001910        1.04      1.04      1.17      0.01         0.02
  YS02001918YS02001915        0.90      0.90      1.04      0.01         0.01
  YS02001920YS02001918        0.90      0.90      0.92      0.08         0.01
  YS02001923YS02001920        0.85      0.85      0.92      0.01         0.01
  YS02001926YS02001923        0.41      0.41      0.44      0.21         0.01
  YS02001929YS02001926        0.28      0.28      0.44      0.01         0.01
  YS02006553YS02006556        1.30      1.30      1.52      0.06         0.06
  YS02006556YS02006558        1.43      1.43      1.54      0.05         0.01
  YS02006558YS02006561        0.96      1.28      0.96      1.61         0.96
  YS02006561YS02001783        0.86      0.86      1.12      0.01         0.01
  YS02163301YS02001633        1.23      1.23      1.26      0.01         0.01
  YS02163601YS02164001        1.20      1.20      1.28      0.01         0.01
  YS02164001YS02001641        1.20      1.20      1.20      0.88         0.83
  
  
  ***************
  Pumping Summary
  ***************
  
  ---------------------------------------------------------------------------------------------------------
                                                  Min       Avg       Max     Total     Power    % Time Off
                        Percent   Number of      Flow      Flow      Flow    Volume     Usage    Pump Curve
  Pump                 Utilized   Start-Ups       LPS       LPS       LPS  10^6 ltr     Kw-hr    Low   High
  ---------------------------------------------------------------------------------------------------------
  CC-R1                   27.44          24      0.00    683.00    683.00     5.398    100.11    0.0   22.7
  CC-R2                   24.82          22      0.00    683.00    683.00     4.881     90.09    0.0   31.1
  CC-S1                   28.89          24      0.00    200.00    200.00     1.664      9.24    0.0    0.0
  CC-S2                   27.13          19      0.00    200.00    200.00     1.563      8.54    0.0    0.0
  JK-R1                   10.54          18      0.00   1000.00   1000.00     3.036     32.99    0.0    0.0
  JK-R2                    7.72          20      0.00   1000.00   1000.00     2.223     19.53    0.0    0.0
  JK-S                    15.02          26      0.00    300.00    300.00     1.297     20.17    0.0    0.0
  

  Analysis begun on:  Thu Sep  7 18:05:09 2023
  Analysis ended on:  Thu Sep  7 18:05:18 2023
  Total elapsed time: 00:00:09