
  OWA STORM WATER MANAGEMENT MODEL - VERSION v5.2.3 (OWA 2023-06-06)
  ------------------------------------------------------------

  WARNING 04: minimum elevation drop used for Conduit WS02004404WS02004405
  WARNING 03: negative offset ignored for Link YS02001904YS02001907
  
  ****************
  Analysis Options
  ****************
  Flow Units ............... LPS
  Process Models:
    Rainfall/Runoff ........ YES
    RDII ................... NO
    Snowmelt ............... NO
    Groundwater ............ NO
    Flow Routing ........... YES
    Ponding Allowed ........ NO
    Water Quality .......... NO
  Infiltration Method ...... HORTON
  Flow Routing Method ...... DYNWAVE
  Surcharge Method ......... EXTRAN
  Starting Date ............ 08/28/2015 08:00:00
  Ending Date .............. 08/28/2015 16:00:00
  Antecedent Dry Days ...... 8.0
  Report Time Step ......... 00:01:00
  Wet Time Step ............ 00:01:00
  Dry Time Step ............ 00:01:00
  Routing Time Step ........ 30.00 sec
  Variable Time Step ....... YES
  Maximum Trials ........... 8
  Number of Threads ........ 2
  Head Tolerance ........... 0.001500 m
  
  
  **************************        Volume         Depth
  Runoff Quantity Continuity     hectare-m            mm
  **************************     ---------       -------
  Total Precipitation ......         1.724        51.961
  Evaporation Loss .........         0.000         0.000
  Infiltration Loss ........         0.097         2.926
  Surface Runoff ...........         1.594        48.052
  Final Storage ............         0.033         0.994
  Continuity Error (%) .....        -0.021
  
  
  **************************        Volume        Volume
  Flow Routing Continuity        hectare-m      10^6 ltr
  **************************     ---------     ---------
  Dry Weather Inflow .......         0.025         0.251
  Wet Weather Inflow .......         1.594        15.936
  Groundwater Inflow .......         0.000         0.000
  RDII Inflow ..............         0.000         0.000
  External Inflow ..........         0.083         0.834
  External Outflow .........         1.465        14.653
  Flooding Loss ............         0.330         3.302
  Evaporation Loss .........         0.000         0.000
  Exfiltration Loss ........         0.000         0.000
  Initial Stored Volume ....         0.243         2.431
  Final Stored Volume ......         0.181         1.814
  Continuity Error (%) .....        -1.633
  
  
  *************************
  Highest Continuity Errors
  *************************
  Node YS02001583 (-7.50%)
  Node YS02001884 (4.98%)
  Node WS02006256 (-3.29%)
  Node YS02001774 (1.32%)
  Node WS02006111 (-1.13%)
  
  
  ***************************
  Time-Step Critical Elements
  ***************************
  Link WS02006252WS02006251 (39.64%)
  Link WS02006238WS02006235 (19.63%)
  Link WS02004404WS02004405 (13.35%)
  Link WS02003066WSF200 (6.68%)
  Link YS02001791YS02001793 (5.73%)
  
  
  ********************************
  Highest Flow Instability Indexes
  ********************************
  Link WS02006113WS02006111 (31)
  Link WS02006256WS02006235 (19)
  Link WS02006111WS02006112 (15)
  Link WS02006238WS02006235 (14)
  Link WS02006252WS02006251 (13)
  
  
  *********************************
  Most Frequent Nonconverging Nodes
  *********************************
  Node CC-1 (8.76%)
  Node CC-2 (8.76%)
  Node JK-1 (8.76%)
  Node JK-2 (8.76%)
  Node WSC (8.76%)
  
  
  *************************
  Routing Time Step Summary
  *************************
  Minimum Time Step           :     0.00 sec
  Average Time Step           :     2.49 sec
  Maximum Time Step           :    30.00 sec
  % of Time in Steady State   :     0.00
  Average Iterations per Step :     2.97
  % of Steps Not Converging   :     8.76
  Time Step Frequencies       :
     30.000 - 13.228 sec      :     0.01 %
     13.228 -  5.833 sec      :    10.80 %
      5.833 -  2.572 sec      :    28.44 %
      2.572 -  1.134 sec      :    18.81 %
      1.134 -  0.500 sec      :    41.95 %
  
  
  ***************************
  Subcatchment Runoff Summary
  ***************************
  
  ------------------------------------------------------------------------------------------------------------------------------
                            Total      Total      Total      Total     Imperv       Perv      Total       Total     Peak  Runoff
                           Precip      Runon       Evap      Infil     Runoff     Runoff     Runoff      Runoff   Runoff   Coeff
  Subcatchment                 mm         mm         mm         mm         mm         mm         mm    10^6 ltr      LPS
  ------------------------------------------------------------------------------------------------------------------------------
  sub60                     51.96       0.00       0.00       1.77      44.52       4.46      48.98        0.64   429.68   0.943
  sub61                     51.96       0.00       0.00       2.57      41.99       6.27      48.26        0.89   594.45   0.929
  sub62                     51.96       0.00       0.00       1.18      46.52       2.98      49.49        1.36   831.63   0.953
  sub63                     51.96       0.00       0.00       4.73      35.92      10.35      46.27        1.05   656.67   0.890
  sub64                     51.96       0.00       0.00       2.39      42.96       5.41      48.36        1.16   670.10   0.931
  sub65                     51.96       0.00       0.00       2.07      43.95       4.69      48.64        1.34   748.27   0.936
  sub66                     51.96       0.00       0.00       5.81      35.82       9.26      45.07        2.10   956.44   0.867
  sub67                     51.96       0.00       0.00       1.14      46.56       3.02      49.58        0.92   646.97   0.954
  sub68                     51.96       0.00       0.00       2.13      43.50       5.15      48.65        1.34   854.28   0.936
  sub69                     51.96       0.00       0.00       1.88      44.05       5.92      49.97        1.85   998.41   0.962
  sub70                     51.96       0.00       0.00       6.21      34.13      11.46      45.59        1.32   537.66   0.877
  sub71                     51.96       0.00       0.00       1.21      46.48       2.95      49.42        1.29   727.59   0.951
  sub72                     51.96       0.00       0.00       1.08      46.92       2.56      49.48        0.68   348.36   0.952
  
  
  ******************
  Node Depth Summary
  ******************
  
  ---------------------------------------------------------------------------------
                                 Average  Maximum  Maximum  Time of Max    Reported
                                   Depth    Depth      HGL   Occurrence   Max Depth
  Node                 Type       Meters   Meters   Meters  days hr:min      Meters
  ---------------------------------------------------------------------------------
  WS02003060           JUNCTION     0.20     0.38     5.32     0  02:41        0.38
  WS02003066           JUNCTION     0.17     0.30     5.85     0  02:40        0.30
  WS02003067           JUNCTION     0.46     0.70     6.02     0  02:40        0.70
  WS02003069           JUNCTION     0.22     0.43     5.01     0  02:41        0.43
  WS02003072           JUNCTION     0.27     0.50     4.87     0  02:45        0.50
  WS02003073           JUNCTION     0.15     0.30     4.36     0  02:46        0.30
  WS02004401           JUNCTION     0.55     0.85     6.85     0  02:25        0.85
  WS02004402           JUNCTION     0.58     0.88     6.84     0  02:25        0.88
  WS02004403           JUNCTION     0.61     0.89     6.82     0  02:25        0.89
  WS02004404           JUNCTION     0.69     0.96     6.81     0  02:25        0.96
  WS02004405           JUNCTION     0.68     0.96     6.81     0  02:25        0.96
  WS02004406           JUNCTION     0.70     0.96     6.79     0  02:25        0.96
  WS02004407           JUNCTION     0.15     0.30     6.61     0  02:26        0.30
  WS02004409           JUNCTION     0.33     0.67     6.44     0  02:35        0.67
  WS02004410           JUNCTION     0.36     0.68     6.40     0  02:39        0.68
  WS02004411           JUNCTION     0.39     0.69     6.37     0  02:39        0.69
  WS02004412           JUNCTION     0.41     0.70     6.34     0  02:34        0.70
  WS02004413           JUNCTION     0.58     0.86     6.33     0  02:40        0.86
  WS02006109           JUNCTION     0.59     1.03     7.65     0  02:02        0.98
  WS02006110           JUNCTION     0.60     0.99     7.58     0  02:02        0.93
  WS02006111           JUNCTION     0.15     0.90     7.60     0  00:00        0.40
  WS02006112           JUNCTION     0.70     2.68     8.56     0  00:00        1.14
  WS02006113           JUNCTION     0.23     1.40     8.29     0  00:00        0.46
  WS02006115           JUNCTION     0.42     1.65     7.79     0  00:00        0.86
  WS02006116           JUNCTION     0.51     1.06     7.10     0  00:00        0.83
  WS02006228           JUNCTION     0.58     1.06     7.71     0  02:01        1.05
  WS02006229           JUNCTION     0.55     1.07     7.76     0  02:01        1.06
  WS02006230           JUNCTION     0.53     1.19     7.94     0  02:01        1.18
  WS02006231           JUNCTION     0.35     0.94     8.06     0  02:01        0.93
  WS02006232           JUNCTION     0.48     1.62     8.66     0  00:15        1.12
  WS02006234           JUNCTION     0.39     1.63     8.79     0  00:15        1.13
  WS02006235           JUNCTION     0.43     1.27     8.43     0  00:15        1.21
  WS02006238           JUNCTION     0.46     1.28     8.42     0  00:15        1.24
  WS02006239           JUNCTION     0.42     1.34     8.55     0  00:15        1.21
  WS02006240           JUNCTION     0.39     1.82     9.11     0  00:15        1.17
  WS02006242           JUNCTION     0.45     1.38     8.64     0  00:15        1.26
  WS02006243           JUNCTION     0.37     1.37     8.79     0  00:15        1.14
  WS02006245           JUNCTION     0.37     1.14     8.62     0  02:02        1.13
  WS02006247           JUNCTION     0.39     1.14     8.64     0  02:02        1.14
  WS02006248           JUNCTION     0.35     1.08     8.67     0  02:18        1.08
  WS02006249           JUNCTION     0.38     1.09     8.69     0  02:01        1.09
  WS02006251           JUNCTION     0.37     1.37     9.04     0  02:01        1.13
  WS02006252           JUNCTION     0.29     1.50     9.74     0  01:55        0.71
  WS02006256           JUNCTION     0.84     2.35     9.28     0  00:09        2.35
  WSF200               JUNCTION     0.14     0.29     5.52     0  02:29        0.29
  YS02001580           JUNCTION     0.09     1.05     9.59     0  01:56        1.05
  YS02001583           JUNCTION     0.12     1.08     9.58     0  01:56        0.97
  YS02001586           JUNCTION     0.21     1.13     9.30     0  01:56        1.13
  YS02001590           JUNCTION     0.31     1.40     9.26     0  01:54        1.40
  YS02001593           JUNCTION     0.24     1.35     9.21     0  01:56        1.34
  YS02001596           JUNCTION     0.33     1.69     9.11     0  01:57        1.69
  YS02001600           JUNCTION     0.41     1.87     9.00     0  01:55        1.87
  YS02001601           JUNCTION     0.60     2.06     8.90     0  01:54        2.06
  YS02001602           JUNCTION     0.51     1.87     8.77     0  01:56        1.87
  YS02001605           JUNCTION     0.47     1.78     8.68     0  02:17        1.78
  YS02001607           JUNCTION     0.45     1.65     8.50     0  02:06        1.65
  YS02001610           JUNCTION     0.49     1.68     8.48     0  01:56        1.68
  YS02001613           JUNCTION     0.45     1.67     8.51     0  01:56        1.66
  YS02001616           JUNCTION     0.39     1.60     8.52     0  01:56        1.59
  YS02001619           JUNCTION     0.36     1.60     8.53     0  01:59        1.58
  YS02001622           JUNCTION     0.35     1.57     8.47     0  01:59        1.55
  YS02001625           JUNCTION     0.59     1.78     8.38     0  01:56        1.78
  YS02001629           JUNCTION     0.48     1.85     8.40     0  01:56        1.85
  YS02001633           JUNCTION     0.55     2.02     8.47     0  02:00        1.99
  YS02001641           JUNCTION     0.52     1.96     8.39     0  02:00        1.93
  YS02001644           JUNCTION     0.52     1.92     8.35     0  02:00        1.92
  YS02001647           JUNCTION     0.30     1.77     8.38     0  02:01        1.72
  YS02001649           JUNCTION     0.34     2.00     8.39     0  02:01        1.91
  YS02001652           JUNCTION     0.22     2.01     8.61     0  02:01        1.75
  YS02001655           JUNCTION     0.16     1.88     8.73     0  02:01        1.54
  YS02001658           JUNCTION     0.12     1.92     9.06     0  02:01        1.30
  YS02001661           JUNCTION     0.14     1.44     8.84     0  02:01        1.09
  YS02001664           JUNCTION     0.06     0.61     8.54     0  02:01        0.55
  YS02001745           JUNCTION     0.06     0.84     8.36     0  02:01        0.67
  YS02001748           JUNCTION     0.10     1.84     8.92     0  02:01        1.13
  YS02001751           JUNCTION     0.13     1.78     8.66     0  02:01        1.32
  YS02001754           JUNCTION     0.18     1.83     8.43     0  02:01        1.58
  YS02001757           JUNCTION     0.34     2.05     8.32     0  02:01        1.92
  YS02001759           JUNCTION     0.28     2.02     8.38     0  02:01        1.92
  YS02001762           JUNCTION     0.27     2.03     8.43     0  02:01        1.92
  YS02001765           JUNCTION     0.25     2.00     8.45     0  02:01        1.89
  YS02001767           JUNCTION     0.25     1.97     8.46     0  02:01        1.88
  YS02001770           JUNCTION     0.27     1.95     8.45     0  01:59        1.95
  YS02001774           JUNCTION     0.33     2.03     8.46     0  02:00        2.03
  YS02001779           JUNCTION     0.16     1.68     8.37     0  01:59        1.68
  YS02001783           JUNCTION     0.27     1.60     7.74     0  01:59        1.23
  YS02001784           JUNCTION     0.28     1.34     7.41     0  01:59        1.11
  YS02001786           JUNCTION     0.24     1.00     7.03     0  01:59        0.87
  YS02001788           JUNCTION     0.17     0.63     6.60     0  01:59        0.62
  YS02001790           JUNCTION     0.20     0.72     6.36     0  02:00        0.71
  YS02001791           JUNCTION     0.13     0.44     5.91     0  02:01        0.43
  YS02001793           JUNCTION     0.07     0.30     5.13     0  01:59        0.29
  YS02001882           JUNCTION     0.33     1.73     8.44     0  01:59        1.63
  YS02001884           JUNCTION     0.41     1.81     8.42     0  01:59        1.72
  YS02001887           JUNCTION     0.49     1.85     8.39     0  01:59        1.82
  YS02001890           JUNCTION     0.52     1.81     8.32     0  01:59        1.81
  YS02001895           JUNCTION     0.30     1.58     8.32     0  01:59        1.56
  YS02001898           JUNCTION     0.31     1.58     8.32     0  01:59        1.57
  YS02001901           JUNCTION     0.41     1.70     8.31     0  01:59        1.67
  YS02001904           JUNCTION     0.40     1.65     8.28     0  01:59        1.64
  YS02001907           JUNCTION     0.69     1.96     8.25     0  01:59        1.96
  YS02001910           JUNCTION     0.51     1.96     8.47     0  01:59        1.95
  YS02001915           JUNCTION     0.33     1.92     8.63     0  02:00        1.90
  YS02001918           JUNCTION     0.18     1.81     8.88     0  01:59        1.81
  YS02001920           JUNCTION     0.26     2.14     9.15     0  01:59        2.08
  YS02001923           JUNCTION     0.14     2.03     9.29     0  01:59        2.03
  YS02001926           JUNCTION     0.17     1.90     9.35     0  01:59        1.90
  YS02001929           JUNCTION     0.10     1.78     9.47     0  01:59        1.68
  YS02006553           JUNCTION     0.70     2.04     8.32     0  01:59        1.97
  YS02006556           JUNCTION     0.67     2.11     8.42     0  01:59        1.94
  YS02006558           JUNCTION     0.71     2.22     8.49     0  01:59        1.98
  YS02006561           JUNCTION     0.17     1.26     7.92     0  01:59        0.89
  YS02163301           JUNCTION     0.50     1.97     8.49     0  01:56        1.91
  YS02163601           JUNCTION     0.58     2.04     8.44     0  02:00        2.01
  YS02164001           JUNCTION     0.51     1.96     8.42     0  02:00        1.93
  CC-1                 OUTFALL      0.00     0.00     0.00     0  00:00        0.00
  CC-2                 OUTFALL      0.00     0.00     0.00     0  00:00        0.00
  JK-1                 OUTFALL      0.00     0.00     0.00     0  00:00        0.00
  JK-2                 OUTFALL      0.00     0.00     0.00     0  00:00        0.00
  WSC                  OUTFALL      0.15     0.30     0.97     0  02:46        0.30
  CC-storage           STORAGE      0.72     1.33     6.83     0  02:29        1.33
  JK-storage           STORAGE      1.46     4.22     5.02     0  01:59        4.19
  
  
  *******************
  Node Inflow Summary
  *******************
  
  -------------------------------------------------------------------------------------------------
                                  Maximum  Maximum                  Lateral       Total        Flow
                                  Lateral    Total  Time of Max      Inflow      Inflow     Balance
                                   Inflow   Inflow   Occurrence      Volume      Volume       Error
  Node                 Type           LPS      LPS  days hr:min    10^6 ltr    10^6 ltr     Percent
  -------------------------------------------------------------------------------------------------
  WS02003060           JUNCTION     16.53   553.07     0  02:40       0.476        3.86       0.062
  WS02003066           JUNCTION      0.00   536.40     0  02:40           0        3.39       0.041
  WS02003067           JUNCTION      0.00   536.35     0  02:40           0        3.39       0.123
  WS02003069           JUNCTION      0.32   553.29     0  02:41     0.00922        3.87       0.102
  WS02003072           JUNCTION      0.00   553.08     0  02:41           0        3.87       0.180
  WS02003073           JUNCTION      1.82   554.88     0  02:46      0.0524        3.91       0.144
  WS02004401           JUNCTION      0.00  1677.78     0  00:00           0         3.5       0.327
  WS02004402           JUNCTION      0.00  1171.33     0  00:01           0        3.49       0.321
  WS02004403           JUNCTION      0.00   884.75     0  00:01           0        3.48       0.313
  WS02004404           JUNCTION      0.16   832.59     0  00:01     0.00467        3.47       0.267
  WS02004405           JUNCTION      0.04   776.49     0  00:01      0.0011        3.46       0.354
  WS02004406           JUNCTION      0.00   711.76     0  00:02           0        3.45       0.633
  WS02004407           JUNCTION      0.00   537.74     0  02:25           0        3.43       0.032
  WS02004409           JUNCTION      0.00   537.38     0  02:26           0        3.43       0.079
  WS02004410           JUNCTION      0.00   536.80     0  02:26           0        3.43       0.130
  WS02004411           JUNCTION      0.00   536.55     0  02:39           0        3.42       0.169
  WS02004412           JUNCTION      0.00   536.52     0  02:39           0        3.42       0.220
  WS02004413           JUNCTION      0.00   536.52     0  02:39           0        3.41       0.402
  WS02006109           JUNCTION      1.23  1308.01     0  00:00      0.0354        3.43       0.246
  WS02006110           JUNCTION      0.00   547.90     0  02:02           0         3.4      -1.061
  WS02006111           JUNCTION      0.00  1176.04     0  00:00           0        3.43      -1.116
  WS02006112           JUNCTION      0.00  2307.30     0  00:00           0        3.47      -0.017
  WS02006113           JUNCTION      0.00   559.12     0  02:02           0        3.39      -1.452
  WS02006115           JUNCTION      0.00   899.27     0  00:00           0        3.45      -0.930
  WS02006116           JUNCTION      0.00  1098.16     0  00:01           0        3.48      -0.665
  WS02006228           JUNCTION      0.00   546.27     0  02:02           0        3.38       0.116
  WS02006229           JUNCTION      0.00   545.84     0  02:02           0        3.37       0.285
  WS02006230           JUNCTION     10.28   549.27     0  02:01       0.296        3.35       0.057
  WS02006231           JUNCTION      0.00   540.41     0  02:01           0        3.04       0.009
  WS02006232           JUNCTION      0.00   540.89     0  02:01           0        3.05       0.234
  WS02006234           JUNCTION      0.00   541.02     0  02:01           0        3.03      -0.516
  WS02006235           JUNCTION      0.00   544.37     0  01:59           0        3.15       0.433
  WS02006238           JUNCTION      0.00   419.28     0  02:45           0        2.54      -0.278
  WS02006239           JUNCTION      0.00   417.67     0  02:45           0        2.46      -0.136
  WS02006240           JUNCTION      0.00   416.22     0  02:45           0        2.42      -0.019
  WS02006242           JUNCTION      0.00   415.90     0  02:45           0        2.42       0.079
  WS02006243           JUNCTION      0.00   415.53     0  02:45           0        2.42      -0.267
  WS02006245           JUNCTION      0.00   415.56     0  02:45           0        2.43       0.489
  WS02006247           JUNCTION      0.00   414.65     0  02:45           0        2.43      -0.021
  WS02006248           JUNCTION      0.00   417.63     0  00:05           0        2.43      -0.034
  WS02006249           JUNCTION      0.00   824.67     0  00:05           0         2.6       0.633
  WS02006251           JUNCTION      0.08   460.09     0  00:05     0.00222        2.58      -0.683
  WS02006252           JUNCTION      0.00   400.00     0  00:05           0        2.57      -0.511
  WS02006256           JUNCTION      0.00   300.00     0  00:15           0        0.89      -3.182
  WSF200               JUNCTION      0.00   536.44     0  02:40           0        3.39       0.014
  YS02001580           JUNCTION      0.00   113.65     0  01:56           0     0.00415      -2.378
  YS02001583           JUNCTION      0.00   183.92     0  01:56           0      0.0148      -6.978
  YS02001586           JUNCTION    537.66   537.71     0  02:04        1.32        1.33       0.103
  YS02001590           JUNCTION      0.00   317.87     0  02:03           0        1.16      -0.046
  YS02001593           JUNCTION      0.00   317.93     0  02:15           0        1.16       0.004
  YS02001596           JUNCTION      0.00   318.03     0  02:15           0        1.16      -0.002
  YS02001600           JUNCTION      0.00   317.94     0  02:03           0        1.16       0.000
  YS02001601           JUNCTION    998.41  1316.09     0  02:03        1.85        3.01       0.024
  YS02001602           JUNCTION      0.00   529.76     0  01:56           0        2.08       0.016
  YS02001605           JUNCTION      0.00   529.19     0  01:56           0           2       0.023
  YS02001607           JUNCTION      0.00   529.46     0  01:56           0           2       0.101
  YS02001610           JUNCTION      0.00   530.88     0  01:56           0        2.04       0.118
  YS02001613           JUNCTION      0.00   534.01     0  01:56           0        1.73       0.103
  YS02001616           JUNCTION      0.00   538.86     0  01:56           0        1.73       0.029
  YS02001619           JUNCTION    956.44   956.44     0  02:04         2.1         3.8      -0.000
  YS02001622           JUNCTION      0.00   938.59     0  01:56           0        3.76       0.005
  YS02001625           JUNCTION      0.00  1059.41     0  02:05           0        3.79       0.236
  YS02001629           JUNCTION      0.00   935.86     0  01:58           0         3.3       0.008
  YS02001633           JUNCTION    748.47  1411.82     0  01:58        1.34        4.59       0.074
  YS02001641           JUNCTION      0.00  1407.15     0  01:58           0        4.54       0.059
  YS02001644           JUNCTION    670.14  1858.56     0  01:59        1.16         5.7       0.056
  YS02001647           JUNCTION      0.00  1856.87     0  01:59           0        5.64       0.004
  YS02001649           JUNCTION      0.00  2137.21     0  01:58           0        6.69       0.007
  YS02001652           JUNCTION      0.00   812.73     0  02:02           0        1.06      -0.098
  YS02001655           JUNCTION      0.15   812.51     0  02:02     0.00443        1.06       0.012
  YS02001658           JUNCTION      0.00   811.85     0  02:02           0        1.05      -0.138
  YS02001661           JUNCTION      0.00   805.09     0  02:01           0        1.05       0.023
  YS02001664           JUNCTION    656.67   656.67     0  02:02        1.05        1.05      -0.008
  YS02001745           JUNCTION    429.69   495.81     0  02:01       0.644       0.644       0.240
  YS02001748           JUNCTION      0.04   652.68     0  02:01      0.0013       0.646      -0.334
  YS02001751           JUNCTION      0.01   540.10     0  02:01    0.000317       0.653      -0.036
  YS02001754           JUNCTION      0.26   541.23     0  02:01     0.00749       0.666      -0.173
  YS02001757           JUNCTION      0.00  3518.78     0  02:01           0        9.61       0.067
  YS02001759           JUNCTION    594.49  1396.11     0  02:01       0.887        2.25      -0.007
  YS02001762           JUNCTION      0.00   817.44     0  02:03           0        1.37       0.002
  YS02001765           JUNCTION      0.00   816.38     0  02:03           0        1.37       0.003
  YS02001767           JUNCTION      0.54   815.56     0  02:03      0.0154        1.36      -0.017
  YS02001770           JUNCTION    831.78   831.78     0  02:02        1.36         1.4      -0.010
  YS02001774           JUNCTION      0.00   416.11     0  01:59           0       0.069       1.341
  YS02001779           JUNCTION      0.01   421.44     0  01:59    0.000144      0.0274      -2.969
  YS02001783           JUNCTION      0.00  1158.65     0  02:00           0        3.57       0.004
  YS02001784           JUNCTION      1.06  1160.37     0  02:01      0.0305         3.6       0.014
  YS02001786           JUNCTION      0.06  1159.96     0  02:01     0.00162         3.6       0.017
  YS02001788           JUNCTION      0.07  1164.61     0  01:59     0.00204         3.6       0.008
  YS02001790           JUNCTION      0.15  1175.66     0  02:00     0.00446        3.61       0.027
  YS02001791           JUNCTION      0.00  1280.38     0  02:05           0        3.61      -0.025
  YS02001793           JUNCTION      0.00  1243.76     0  02:01           0        3.61       0.008
  YS02001882           JUNCTION      0.00    57.01     0  01:57           0      0.0126       5.274
  YS02001884           JUNCTION      0.00    71.47     0  01:57           0      0.0485       5.245
  YS02001887           JUNCTION    647.42   649.43     0  02:01       0.935       0.968       0.466
  YS02001890           JUNCTION      0.00   649.19     0  02:01           0       0.927       0.547
  YS02001895           JUNCTION      0.00   517.60     0  02:04           0       0.892       0.174
  YS02001898           JUNCTION      0.00   517.53     0  02:04           0        0.89       0.020
  YS02001901           JUNCTION      0.00   517.12     0  02:04           0       0.893       0.370
  YS02001904           JUNCTION      0.00   517.26     0  02:04           0       0.897       0.309
  YS02001907           JUNCTION      0.00  1615.83     0  02:04           0        2.94       0.622
  YS02001910           JUNCTION      0.00  1099.22     0  02:04           0        2.05       0.344
  YS02001915           JUNCTION    727.61  1098.96     0  02:04        1.29         2.1       0.068
  YS02001918           JUNCTION      0.00   477.53     0  01:59           0       0.839       0.015
  YS02001920           JUNCTION      2.87   472.02     0  01:59      0.0827        0.82       0.107
  YS02001923           JUNCTION      0.04   473.40     0  01:59     0.00109       0.721      -0.122
  YS02001926           JUNCTION      0.05   701.59     0  01:59      0.0015       0.699      -0.138
  YS02001929           JUNCTION    348.36   593.65     0  01:59        0.68       0.684       0.006
  YS02006553           JUNCTION      0.00   799.02     0  02:17           0        2.25       0.521
  YS02006556           JUNCTION      0.00   798.67     0  02:17           0        2.26       0.354
  YS02006558           JUNCTION    855.16  1177.48     0  01:59        1.36         3.6       0.099
  YS02006561           JUNCTION      0.00  1174.48     0  01:59           0        3.57      -0.006
  YS02163301           JUNCTION      0.00   935.91     0  01:58           0        3.29       0.045
  YS02163601           JUNCTION      0.11  1410.88     0  01:58     0.00317        4.54       0.107
  YS02164001           JUNCTION      0.00  1409.84     0  01:58           0        4.54       0.047
  CC-1                 OUTFALL       0.00   683.00     0  01:40           0        2.75       0.000
  CC-2                 OUTFALL       0.00   683.00     0  00:15           0        5.15       0.000
  JK-1                 OUTFALL       0.00  1000.00     0  00:05           0        1.46       0.000
  JK-2                 OUTFALL       0.00  1000.00     0  00:05           0        1.39       0.000
  WSC                  OUTFALL       0.00   554.85     0  02:46           0        3.91       0.000
  CC-storage           STORAGE       0.00  3521.41     0  02:02           0        11.8      -0.257
  JK-storage           STORAGE       0.00  1277.46     0  02:00           0        3.76      -0.435
  
  
  **********************
  Node Surcharge Summary
  **********************
  
  Surcharging occurs when water rises above the top of the highest conduit.
  ---------------------------------------------------------------------
                                               Max. Height   Min. Depth
                                   Hours       Above Crown    Below Rim
  Node                 Type      Surcharged         Meters       Meters
  ---------------------------------------------------------------------
  WS02006109           JUNCTION        1.09          0.212        1.608
  WS02006110           JUNCTION        0.58          0.083        1.767
  WS02006111           JUNCTION        0.01          0.087        1.783
  WS02006112           JUNCTION        0.53          1.680        0.000
  WS02006113           JUNCTION        0.01          0.600        1.330
  WS02006115           JUNCTION        0.01          0.642        1.608
  WS02006116           JUNCTION        0.01          0.000        2.290
  WS02006228           JUNCTION        1.08          0.226        1.974
  WS02006229           JUNCTION        1.09          0.271        2.179
  WS02006230           JUNCTION        0.58          0.113        1.457
  WS02006231           JUNCTION        0.61          0.225        1.305
  WS02006232           JUNCTION        1.14          0.919        0.561
  WS02006234           JUNCTION        0.69          0.910        0.330
  WS02006235           JUNCTION        1.10          0.556        0.734
  WS02006238           JUNCTION        1.13          0.557        0.873
  WS02006239           JUNCTION        1.09          0.600        0.690
  WS02006240           JUNCTION        1.09          1.112        0.278
  WS02006242           JUNCTION        1.14          0.645        0.175
  WS02006243           JUNCTION        1.07          0.659        0.111
  WS02006245           JUNCTION        1.06          0.427        0.423
  WS02006247           JUNCTION        1.07          0.431        0.329
  WS02006248           JUNCTION        1.05          0.365        0.015
  WS02006249           JUNCTION        1.05          0.390        0.000
  WS02006251           JUNCTION        0.62          0.340        0.840
  WS02006252           JUNCTION        1.42          1.100        0.000
  WS02006256           JUNCTION        6.11          2.050        0.000
  YS02001580           JUNCTION        0.47          0.450        0.000
  YS02001583           JUNCTION        0.49          0.439        0.061
  YS02001586           JUNCTION        0.60          0.510        0.000
  YS02001590           JUNCTION        0.67          0.750        0.000
  YS02001593           JUNCTION        0.67          0.728        0.112
  YS02001596           JUNCTION        0.77          0.964        0.106
  YS02001600           JUNCTION        0.92          1.190        0.000
  YS02001601           JUNCTION        1.32          1.440        0.000
  YS02001602           JUNCTION        1.19          1.270        0.000
  YS02001605           JUNCTION        1.13          1.180        0.000
  YS02001607           JUNCTION        0.61          0.653        0.027
  YS02001610           JUNCTION        0.64          0.680        0.000
  YS02001613           JUNCTION        0.61          0.666        0.034
  YS02001616           JUNCTION        0.57          0.604        0.006
  YS02001619           JUNCTION        0.56          0.598        0.012
  YS02001622           JUNCTION        0.55          0.570        0.050
  YS02001625           JUNCTION        0.72          0.780        0.000
  YS02001629           JUNCTION        0.48          0.470        0.000
  YS02001633           JUNCTION        0.73          1.000        0.060
  YS02001641           JUNCTION        0.64          0.958        0.142
  YS02001644           JUNCTION        0.60          0.920        0.000
  YS02001647           JUNCTION        0.40          0.772        0.128
  YS02001649           JUNCTION        0.48          0.998        0.052
  YS02001652           JUNCTION        0.32          0.980        0.150
  YS02001655           JUNCTION        0.19          0.877        0.323
  YS02001658           JUNCTION        0.08          0.922        0.378
  YS02001661           JUNCTION        0.01          0.367        1.023
  YS02001748           JUNCTION        0.01          0.764        0.426
  YS02001751           JUNCTION        0.11          0.780        0.420
  YS02001754           JUNCTION        0.21          0.776        0.374
  YS02001757           JUNCTION        0.50          1.054        0.156
  YS02001759           JUNCTION        0.42          1.016        0.194
  YS02001762           JUNCTION        0.40          1.028        0.122
  YS02001765           JUNCTION        0.36          1.003        0.097
  YS02001767           JUNCTION        0.34          0.967        0.063
  YS02001770           JUNCTION        0.32          0.920        0.000
  YS02001774           JUNCTION        0.39          1.033        0.017
  YS02001779           JUNCTION        0.22          0.680        0.000
  YS02001783           JUNCTION        0.45          0.797        0.803
  YS02001784           JUNCTION        0.42          0.538        0.952
  YS02001786           JUNCTION        0.33          0.196        1.234
  YS02001882           JUNCTION        0.40          0.726        0.104
  YS02001884           JUNCTION        0.41          0.746        0.124
  YS02001887           JUNCTION        0.44          0.798        0.152
  YS02001890           JUNCTION        0.45          0.760        0.000
  YS02001895           JUNCTION        0.39          0.576        0.174
  YS02001898           JUNCTION        0.38          0.553        0.187
  YS02001901           JUNCTION        0.42          0.700        0.170
  YS02001904           JUNCTION        0.42          0.647        0.203
  YS02001907           JUNCTION        0.64          0.950        0.000
  YS02001910           JUNCTION        0.48          0.961        0.139
  YS02001915           JUNCTION        0.40          0.915        0.085
  YS02001918           JUNCTION        0.32          0.810        0.000
  YS02001920           JUNCTION        0.33          1.140        0.000
  YS02001923           JUNCTION        0.01          0.820        0.000
  YS02001926           JUNCTION        0.02          0.900        0.000
  YS02001929           JUNCTION        0.01          0.780        0.000
  YS02006553           JUNCTION        0.66          1.037        0.153
  YS02006556           JUNCTION        0.56          1.071        0.279
  YS02006558           JUNCTION        0.55          1.119        0.281
  YS02006561           JUNCTION        0.29          0.457        0.693
  YS02163301           JUNCTION        0.71          0.970        0.060
  YS02163601           JUNCTION        0.76          1.039        0.041
  YS02164001           JUNCTION        0.66          0.959        0.141
  
  
  *********************
  Node Flooding Summary
  *********************
  
  Flooding refers to all water that overflows a node, whether it ponds or not.
  --------------------------------------------------------------------------
                                                             Total   Maximum
                                 Maximum   Time of Max       Flood    Ponded
                        Hours       Rate    Occurrence      Volume     Depth
  Node                 Flooded       LPS   days hr:min    10^6 ltr    Meters
  --------------------------------------------------------------------------
  WS02006112              0.01   1547.89      0  00:00       0.047     0.000
  WS02006249              0.61    101.94      0  02:12       0.155     0.000
  WS02006252              0.01      0.91      0  01:55       0.000     0.000
  WS02006256              0.82    285.51      0  04:25       0.289     0.000
  YS02001580              0.01     93.59      0  01:56       0.000     0.000
  YS02001586              0.37    220.38      0  02:04       0.158     0.000
  YS02001590              0.01     43.75      0  01:54       0.000     0.000
  YS02001600              0.01      4.91      0  01:55       0.000     0.000
  YS02001601              0.53    918.15      0  02:03       0.924     0.000
  YS02001602              0.41     61.98      0  02:02       0.079     0.000
  YS02001605              0.01      0.17      0  02:17       0.000     0.000
  YS02001610              0.34    446.13      0  02:05       0.338     0.000
  YS02001625              0.30   1058.72      0  02:05       0.532     0.000
  YS02001629              0.07    176.75      0  01:56       0.021     0.000
  YS02001644              0.07    438.30      0  02:02       0.052     0.000
  YS02001770              0.01    173.48      0  01:59       0.000     0.000
  YS02001779              0.04    330.97      0  01:59       0.011     0.000
  YS02001890              0.10    142.51      0  02:01       0.030     0.000
  YS02001907              0.26   1269.95      0  02:03       0.679     0.000
  YS02001918              0.01    242.56      0  02:00       0.003     0.000
  YS02001920              0.01     53.79      0  01:59       0.000     0.000
  YS02001923              0.01    376.06      0  01:59       0.002     0.000
  YS02001926              0.01    624.94      0  01:59       0.002     0.000
  YS02001929              0.01    135.86      0  01:59       0.000     0.000
  
  
  **********************
  Storage Volume Summary
  **********************
  
  ------------------------------------------------------------------------------------------------
                         Average    Avg   Evap  Exfil     Maximum    Max    Time of Max    Maximum
                          Volume   Pcnt   Pcnt   Pcnt      Volume   Pcnt     Occurrence    Outflow
  Storage Unit           1000 m³   Full   Loss   Loss     1000 m³   Full    days hr:min        LPS
  ------------------------------------------------------------------------------------------------
  CC-storage               2.009   31.3    0.0    0.0       3.698   57.7       0  02:29    1766.00
  JK-storage               0.073   25.1    0.0    0.0       0.212   72.7       0  01:59    2300.00
  
  
  ***********************
  Outfall Loading Summary
  ***********************
  
  -----------------------------------------------------------
                         Flow       Avg       Max       Total
                         Freq      Flow      Flow      Volume
  Outfall Node           Pcnt       LPS       LPS    10^6 ltr
  -----------------------------------------------------------
  CC-1                  27.08    683.00    683.00       2.750
  CC-2                  47.82    683.00    683.00       5.147
  JK-1                   7.62   1000.00   1000.00       1.458
  JK-2                  10.29   1000.00   1000.00       1.392
  WSC                   99.99    186.61    554.85       3.907
  -----------------------------------------------------------
  System                38.56   3552.61   3920.64      14.653
  
  
  ********************
  Link Flow Summary
  ********************
  
  -----------------------------------------------------------------------------
                                 Maximum  Time of Max   Maximum    Max/    Max/
                                  |Flow|   Occurrence   |Veloc|    Full    Full
  Link                 Type          LPS  days hr:min     m/sec    Flow   Depth
  -----------------------------------------------------------------------------
  1                    CONDUIT    554.85     0  02:46      2.83    0.19    0.30
  WS02003060WS02003069 CONDUIT    552.97     0  02:41      1.64    0.22    0.34
  WS02003066WSF200     CONDUIT    536.44     0  02:40      2.85    0.09    0.22
  WS02003067WS02003066 CONDUIT    536.40     0  02:40      1.21    0.17    0.42
  WS02003069WS02003072 CONDUIT    553.08     0  02:41      1.37    0.27    0.39
  WS02003072WS02003073 CONDUIT    553.06     0  02:46      1.43    1.19    0.37
  WS02004401WS02004402 CONDUIT   1171.33     0  00:01      2.51    1.41    0.86
  WS02004402WS02004403 CONDUIT    884.75     0  00:01      2.16    1.27    0.88
  WS02004403WS02004404 CONDUIT    832.43     0  00:01      1.96    0.60    0.93
  WS02004404WS02004405 CONDUIT    776.45     0  00:01      2.26    7.61    0.96
  WS02004405WS02004406 CONDUIT    711.76     0  00:02      2.15    1.40    0.96
  WS02004406WS02004407 CONDUIT    537.74     0  02:25      1.04    0.24    0.63
  WS02004407WS02004409 CONDUIT    537.38     0  02:26      1.95    0.19    0.48
  WS02004409WS02004410 CONDUIT    536.80     0  02:26      1.31    0.69    0.67
  WS02004410WS02004411 CONDUIT    536.55     0  02:39      1.19    0.73    0.69
  WS02004411WS02004412 CONDUIT    536.52     0  02:39      1.08    0.76    0.69
  WS02004412WS02004413 CONDUIT    536.52     0  02:39      1.10    0.36    0.78
  WS02004413WS02003067 CONDUIT    536.35     0  02:40      1.11    0.23    0.59
  WS02006109WS02006110 CONDUIT   1306.78     0  00:00      3.14    2.51    1.00
  WS02006110WS02006113 CONDUIT    559.12     0  02:02      1.34    0.51    1.00
  WS02006111WS02006112 CONDUIT   2307.30     0  00:00      9.18    1.10    0.91
  WS02006112WS02006115 CONDUIT    899.27     0  00:00      1.16    0.53    1.00
  WS02006113WS02006111 CONDUIT   1176.04     0  00:00      2.46    1.41    1.00
  WS02006115WS02006116 CONDUIT   1098.16     0  00:01      1.72    1.41    1.00
  WS02006116WS02004401 CONDUIT   1677.78     0  00:00      2.92    2.31    0.84
  WS02006228WS02006109 CONDUIT    545.87     0  02:02      1.40    2.38    1.00
  WS02006229WS02006228 CONDUIT    546.27     0  02:02      1.24    1.81    1.00
  WS02006230WS02006229 CONDUIT    545.84     0  02:02      1.42   12.15    1.00
  WS02006231WS02006230 CONDUIT    538.99     0  02:01      1.50    8.18    1.00
  WS02006232WS02006231 CONDUIT    540.41     0  02:01      1.40    1.13    1.00
  WS02006234WS02006232 CONDUIT    540.89     0  02:01      1.41    1.09    1.00
  WS02006235WS02006234 CONDUIT    541.02     0  02:01      1.41    5.71    1.00
  WS02006238WS02006235 CONDUIT    421.71     0  02:45      1.67    0.94    1.00
  WS02006239WS02006238 CONDUIT    419.28     0  02:45      1.27    1.34    1.00
  WS02006240WS02006239 CONDUIT    417.67     0  02:45      1.33    1.31    1.00
  WS02006242WS02006240 CONDUIT    416.22     0  02:45      1.17    1.65    1.00
  WS02006243WS02006242 CONDUIT    415.90     0  02:45      1.45    0.89    1.00
  WS02006245WS02006243 CONDUIT    415.53     0  02:45      1.46    1.23    1.00
  WS02006247WS02006245 CONDUIT    415.56     0  02:45      1.42    3.30    1.00
  WS02006248WS02006247 CONDUIT    414.65     0  02:45      1.53    0.90    1.00
  WS02006249WS02006248 CONDUIT    417.63     0  00:05      1.54    2.29    1.00
  WS02006251WS02006249 CONDUIT    824.67     0  00:05      2.86    2.38    1.00
  WS02006252WS02006251 CONDUIT    460.01     0  00:05     19.20    1.69    1.00
  WS02006256WS02006235 CONDUIT    287.91     0  04:10      4.19    3.05    1.00
  WSF200WS02003060     CONDUIT    536.54     0  02:40      2.06    0.12    0.28
  YS02001580YS02001583 CONDUIT    113.65     0  01:56      0.71    0.44    1.00
  YS02001583YS02001586 CONDUIT    174.55     0  01:56      0.74    0.26    1.00
  YS02001586YS02001590 CONDUIT    317.87     0  02:03      1.26    0.56    1.00
  YS02001590YS02001593 CONDUIT    317.93     0  02:15      1.12    2.00    1.00
  YS02001593YS02001596 CONDUIT    318.03     0  02:15      1.74    0.50    1.00
  YS02001596YS02001600 CONDUIT    317.94     0  02:03      1.22    0.62    1.00
  YS02001600YS02001601 CONDUIT    317.93     0  02:05      1.12    0.55    1.00
  YS02001601YS02001602 CONDUIT    529.76     0  01:56      1.87    1.91    1.00
  YS02001602YS02001605 CONDUIT    529.19     0  01:56      1.87   11.20    1.00
  YS02001605YS02001607 CONDUIT    529.46     0  01:56      1.87    2.90    1.00
  YS02001607YS02001610 CONDUIT    530.88     0  01:56      0.68    0.50    1.00
  YS02001610YS02001613 CONDUIT    534.01     0  01:56      0.68    0.62    1.00
  YS02001613YS02001616 CONDUIT    538.86     0  01:56      0.69    0.46    1.00
  YS02001616YS02001619 CONDUIT    513.55     0  01:56      0.67    0.89    1.00
  YS02001619YS02001622 CONDUIT    938.59     0  01:56      1.20    1.38    1.00
  YS02001622YS02001625 CONDUIT    941.97     0  01:56      1.20    0.50    1.00
  YS02001625YS02001629 CONDUIT    935.86     0  01:58      1.19    0.45    1.00
  YS02001629YS02163301 CONDUIT    935.91     0  01:58      1.19    1.15    1.00
  YS02001633YS02163601 CONDUIT   1410.77     0  01:58      1.80    1.48    1.00
  YS02001641YS02001644 CONDUIT   1408.30     0  01:58      1.79    4.55    1.00
  YS02001644YS02001647 CONDUIT   1856.87     0  01:59      2.38    1.09    1.00
  YS02001647YS02001649 CONDUIT   1869.03     0  01:58      2.39    0.99    1.00
  YS02001649YS02001757 CONDUIT   2133.38     0  01:59      2.72    1.29    1.00
  YS02001652YS02001649 CONDUIT    812.81     0  02:02      1.03    0.40    1.00
  YS02001655YS02001652 CONDUIT    812.73     0  02:02      1.35    0.39    1.00
  YS02001658YS02001655 CONDUIT    812.36     0  02:02      1.95    0.34    1.00
  YS02001661YS02001658 CONDUIT    811.85     0  02:02      2.40    0.32    1.00
  YS02001664YS02001661 CONDUIT    805.09     0  02:01      2.44    0.25    0.80
  YS02001745YS02001748 CONDUIT    652.63     0  02:01      2.32    0.25    0.92
  YS02001748YS02001751 CONDUIT    540.09     0  02:01      1.77    0.27    1.00
  YS02001751YS02001754 CONDUIT    540.97     0  02:01      1.48    0.26    1.00
  YS02001754YS02001757 CONDUIT    541.24     0  02:01      0.69    0.22    1.00
  YS02001757CaochengTiaoxuchi CONDUIT   3521.41     0  02:02      4.95    1.52    1.00
  YS02001759YS02001757 CONDUIT   1398.61     0  02:01      1.78    0.99    1.00
  YS02001762YS02001759 CONDUIT    817.54     0  02:03      1.04    0.94    1.00
  YS02001765YS02001762 CONDUIT    817.44     0  02:03      1.04    0.77    1.00
  YS02001767YS02001765 CONDUIT    816.38     0  02:03      1.04    1.03    1.00
  YS02001770YS02001767 CONDUIT    815.03     0  02:03      1.04    3.23    1.00
  YS02001774YS02001770 CONDUIT    416.11     0  01:59      0.53    0.27    1.00
  YS02001779YS02001774 CONDUIT    421.43     0  01:59      0.54    0.21    1.00
  YS02001783YS02001784 CONDUIT   1159.31     0  02:01      2.31    1.60    1.00
  YS02001784YS02001785 CONDUIT   1159.90     0  02:01      2.31    2.70    1.00
  YS02001786YS02001788 CONDUIT   1164.54     0  01:59      2.49    2.24    0.89
  YS02001788YS02001790 CONDUIT   1175.51     0  02:00      2.71    0.87    0.84
  YS02001790YS02001791 CONDUIT   1280.38     0  02:05      3.41    1.39    0.70
  YS02001791YS02001793 CONDUIT   1243.76     0  02:01      6.78    0.53    0.44
  YS02001793JiankangQianchi CONDUIT   1277.46     0  02:00      2.54    0.10    0.65
  YS02001882YS02001884 CONDUIT     57.01     0  01:57      0.12    0.07    1.00
  YS02001884YS02001887 CONDUIT     71.47     0  01:57      0.09    0.10    1.00
  YS02001887YS02001890 CONDUIT    649.19     0  02:01      0.83    1.11    1.00
  YS02001890YS02001895 CONDUIT    517.60     0  02:04      0.66    0.24    1.00
  YS02001895YS02001898 CONDUIT    517.53     0  02:04      0.66    0.90    1.00
  YS02001898YS02001901 CONDUIT    517.12     0  02:04      0.66    0.33    1.00
  YS02001901YS02001904 CONDUIT    517.26     0  02:04      0.66    0.80    1.00
  YS02001904YS02001907 CONDUIT    518.20     0  02:04      0.66    0.18    1.00
  YS02001907YS02006553 CONDUIT    799.02     0  02:17      0.89    0.94    1.00
  YS02001910YS02001907 CONDUIT   1099.17     0  02:04      1.40    0.62    1.00
  YS02001915YS02001910 CONDUIT   1099.22     0  02:04      1.40    0.55    1.00
  YS02001918YS02001915 CONDUIT    477.53     0  01:59      0.61    0.26    1.00
  YS02001920YS02001918 CONDUIT    469.15     0  01:59      0.64    0.45    1.00
  YS02001923YS02001920 CONDUIT    473.36     0  01:59      0.70    0.21    1.00
  YS02001926YS02001923 CONDUIT    439.94     0  01:59      0.98    0.63    1.00
  YS02001929YS02001926 CONDUIT    402.07     0  02:00      1.16    0.19    1.00
  YS02006553YS02006556 CONDUIT    798.67     0  02:17      1.02    0.68    1.00
  YS02006556YS02006558 CONDUIT    802.13     0  02:17      1.02    0.63    1.00
  YS02006558YS02006561 CONDUIT   1174.48     0  01:59      4.15    2.60    1.00
  YS02006561YS02001783 CONDUIT   1158.65     0  02:00      2.31    0.60    1.00
  YS02163301YS02001633 CONDUIT    936.61     0  01:58      1.19    0.88    1.00
  YS02163601YS02164001 CONDUIT   1409.84     0  01:58      1.80    1.25    1.00
  YS02164001YS02001641 CONDUIT   1407.15     0  01:58      1.79    1.92    1.00
  CC-R1                PUMP       683.00     0  01:40              1.00
  CC-R2                PUMP       683.00     0  00:15              1.00
  CC-S1                PUMP       200.00     0  00:05              1.00
  CC-S2                PUMP       200.00     0  00:05              1.00
  JK-R1                PUMP      1000.00     0  00:05              1.00
  JK-R2                PUMP      1000.00     0  00:05              1.00
  JK-S                 PUMP       300.00     0  00:15              1.00
  
  
  ***************************
  Flow Classification Summary
  ***************************
  
  -------------------------------------------------------------------------------------
                      Adjusted    ---------- Fraction of Time in Flow Class ---------- 
                       /Actual         Up    Down  Sub   Sup   Up    Down  Norm  Inlet 
  Conduit               Length    Dry  Dry   Dry   Crit  Crit  Crit  Crit  Ltd   Ctrl  
  -------------------------------------------------------------------------------------
  1                       1.00   0.00  0.00  0.00  0.00  1.00  0.00  0.00  0.34  0.00
  WS02003060WS02003069    1.00   0.00  0.00  0.00  0.96  0.04  0.00  0.00  0.79  0.00
  WS02003066WSF200        1.00   0.03  0.00  0.00  0.00  0.97  0.00  0.00  0.88  0.00
  WS02003067WS02003066    1.00   0.02  0.01  0.00  0.97  0.00  0.00  0.00  0.00  0.00
  WS02003069WS02003072    1.00   0.00  0.00  0.00  0.99  0.01  0.00  0.00  0.84  0.00
  WS02003072WS02003073    1.00   0.00  0.00  0.00  0.00  0.00  0.00  1.00  0.00  0.00
  WS02004401WS02004402    1.00   0.00  0.00  0.00  1.00  0.00  0.00  0.00  0.00  0.00
  WS02004402WS02004403    1.00   0.00  0.00  0.00  1.00  0.00  0.00  0.00  0.00  0.00
  WS02004403WS02004404    1.00   0.00  0.00  0.00  1.00  0.00  0.00  0.00  0.00  0.00
  WS02004404WS02004405    1.00   0.00  0.00  0.00  1.00  0.00  0.00  0.00  0.00  0.00
  WS02004405WS02004406    1.00   0.00  0.00  0.00  1.00  0.00  0.00  0.00  0.00  0.00
  WS02004406WS02004407    1.00   0.00  0.00  0.00  1.00  0.00  0.00  0.00  0.00  0.00
  WS02004407WS02004409    1.00   0.00  0.00  0.00  0.99  0.01  0.00  0.00  0.99  0.00
  WS02004409WS02004410    1.00   0.00  0.00  0.00  0.99  0.00  0.00  0.00  0.00  0.00
  WS02004410WS02004411    1.00   0.01  0.00  0.00  0.99  0.00  0.00  0.00  0.00  0.00
  WS02004411WS02004412    1.00   0.01  0.00  0.00  0.99  0.00  0.00  0.00  0.00  0.00
  WS02004412WS02004413    1.00   0.01  0.00  0.00  0.99  0.00  0.00  0.00  0.00  0.00
  WS02004413WS02003067    1.00   0.01  0.01  0.00  0.00  0.00  0.98  0.00  0.00  0.00
  WS02006109WS02006110    1.00   0.00  0.00  0.00  1.00  0.00  0.00  0.00  0.00  0.00
  WS02006110WS02006113    1.00   0.00  0.00  0.00  1.00  0.00  0.00  0.00  0.00  0.00
  WS02006111WS02006112    1.00   0.00  0.00  0.00  1.00  0.00  0.00  0.00  1.00  0.00
  WS02006112WS02006115    1.00   0.00  0.00  0.00  1.00  0.00  0.00  0.00  0.00  0.00
  WS02006113WS02006111    1.00   0.00  0.00  0.00  0.01  0.99  0.00  0.00  0.09  0.00
  WS02006115WS02006116    1.00   0.00  0.00  0.00  1.00  0.00  0.00  0.00  0.00  0.00
  WS02006116WS02004401    1.00   0.00  0.00  0.00  1.00  0.00  0.00  0.00  0.00  0.00
  WS02006228WS02006109    1.00   0.00  0.00  0.00  1.00  0.00  0.00  0.00  0.00  0.00
  WS02006229WS02006228    1.00   0.00  0.00  0.00  1.00  0.00  0.00  0.00  0.00  0.00
  WS02006230WS02006229    1.00   0.00  0.00  0.00  1.00  0.00  0.00  0.00  0.04  0.00
  WS02006231WS02006230    1.00   0.00  0.00  0.00  0.17  0.00  0.83  0.00  0.00  0.00
  WS02006232WS02006231    1.00   0.00  0.00  0.00  0.99  0.00  0.01  0.00  0.00  0.00
  WS02006234WS02006232    1.00   0.00  0.00  0.00  0.99  0.00  0.00  0.00  0.07  0.00
  WS02006235WS02006234    1.00   0.01  0.00  0.00  0.88  0.00  0.10  0.00  0.00  0.00
  WS02006238WS02006235    1.00   0.01  0.00  0.00  0.98  0.01  0.00  0.00  0.01  0.00
  WS02006239WS02006238    1.00   0.01  0.00  0.00  0.98  0.00  0.00  0.00  0.19  0.00
  WS02006240WS02006239    1.00   0.01  0.00  0.00  0.64  0.00  0.00  0.35  0.05  0.00
  WS02006242WS02006240    1.00   0.01  0.00  0.00  0.97  0.00  0.01  0.00  0.00  0.00
  WS02006243WS02006242    1.00   0.01  0.00  0.00  0.98  0.00  0.00  0.01  0.68  0.00
  WS02006245WS02006243    1.00   0.01  0.00  0.00  0.71  0.00  0.00  0.28  0.00  0.00
  WS02006247WS02006245    1.00   0.01  0.00  0.00  0.96  0.00  0.00  0.03  0.00  0.00
  WS02006248WS02006247    1.00   0.01  0.00  0.00  0.98  0.00  0.00  0.01  0.53  0.00
  WS02006249WS02006248    1.00   0.00  0.01  0.00  0.34  0.00  0.64  0.00  0.00  0.00
  WS02006251WS02006249    1.00   0.00  0.00  0.00  0.99  0.01  0.00  0.00  0.65  0.00
  WS02006252WS02006251    1.00   0.01  0.44  0.00  0.08  0.00  0.48  0.00  0.00  0.00
  WS02006256WS02006235    1.00   0.01  0.00  0.00  0.96  0.03  0.00  0.00  0.01  0.00
  WSF200WS02003060        1.00   0.00  0.03  0.00  0.53  0.44  0.00  0.00  0.74  0.00
  YS02001580YS02001583    1.00   0.24  0.59  0.00  0.18  0.00  0.00  0.00  0.68  0.00
  YS02001583YS02001586    1.00   0.43  0.34  0.00  0.23  0.00  0.00  0.00  0.68  0.00
  YS02001586YS02001590    1.00   0.13  0.00  0.00  0.41  0.04  0.00  0.42  0.37  0.00
  YS02001590YS02001593    1.00   0.13  0.01  0.00  0.10  0.00  0.77  0.00  0.00  0.00
  YS02001593YS02001596    1.00   0.14  0.00  0.00  0.11  0.01  0.00  0.74  0.02  0.00
  YS02001596YS02001600    1.00   0.14  0.00  0.00  0.19  0.01  0.00  0.67  0.05  0.00
  YS02001600YS02001601    1.00   0.13  0.01  0.00  0.86  0.00  0.00  0.00  0.62  0.00
  YS02001601YS02001602    1.00   0.13  0.01  0.00  0.86  0.00  0.00  0.00  0.00  0.00
  YS02001602YS02001605    1.00   0.14  0.00  0.00  0.86  0.00  0.00  0.00  0.00  0.00
  YS02001605YS02001607    1.00   0.14  0.00  0.00  0.86  0.00  0.00  0.00  0.00  0.00
  YS02001607YS02001610    1.00   0.13  0.01  0.00  0.86  0.00  0.00  0.00  0.02  0.00
  YS02001610YS02001613    1.00   0.13  0.00  0.00  0.87  0.00  0.00  0.00  0.01  0.00
  YS02001613YS02001616    1.00   0.13  0.00  0.00  0.87  0.00  0.00  0.00  0.01  0.00
  YS02001616YS02001619    1.00   0.13  0.00  0.00  0.87  0.00  0.00  0.00  0.00  0.00
  YS02001619YS02001622    1.00   0.13  0.00  0.00  0.87  0.00  0.00  0.00  0.29  0.00
  YS02001622YS02001625    1.00   0.13  0.00  0.00  0.87  0.00  0.00  0.00  0.05  0.00
  YS02001625YS02001629    1.00   0.13  0.05  0.00  0.14  0.00  0.68  0.00  0.00  0.00
  YS02001629YS02163301    1.00   0.16  0.01  0.00  0.83  0.00  0.00  0.00  0.00  0.00
  YS02001633YS02163601    1.00   0.00  0.01  0.00  0.99  0.00  0.00  0.00  0.15  0.00
  YS02001641YS02001644    1.00   0.00  0.01  0.00  0.99  0.00  0.00  0.00  0.00  0.00
  YS02001644YS02001647    1.00   0.00  0.18  0.00  0.82  0.00  0.00  0.00  0.00  0.00
  YS02001647YS02001649    1.00   0.00  0.18  0.00  0.50  0.32  0.00  0.00  0.58  0.00
  YS02001649YS02001757    1.00   0.00  0.00  0.00  0.65  0.35  0.00  0.00  0.52  0.00
  YS02001652YS02001649    1.00   0.00  0.00  0.00  0.96  0.04  0.00  0.00  0.76  0.00
  YS02001655YS02001652    1.00   0.00  0.00  0.00  0.16  0.01  0.00  0.82  0.07  0.00
  YS02001658YS02001655    1.00   0.00  0.14  0.00  0.62  0.24  0.00  0.00  0.73  0.00
  YS02001661YS02001658    1.00   0.14  0.00  0.00  0.46  0.40  0.00  0.00  0.73  0.00
  YS02001664YS02001661    1.00   0.13  0.00  0.00  0.75  0.12  0.00  0.00  0.86  0.00
  YS02001745YS02001748    1.00   0.00  0.00  0.00  0.05  0.01  0.00  0.94  0.04  0.00
  YS02001748YS02001751    1.00   0.00  0.00  0.00  0.78  0.22  0.00  0.00  0.81  0.00
  YS02001751YS02001754    1.00   0.00  0.00  0.00  0.11  0.01  0.00  0.88  0.02  0.00
  YS02001754YS02001757    1.00   0.00  0.00  0.00  1.00  0.00  0.00  0.00  0.87  0.00
  YS02001757CaochengTiaoxuchi    1.00   0.00  0.00  0.00  0.95  0.05  0.00  0.00  0.85  0.00
  YS02001759YS02001757    1.00   0.00  0.00  0.00  1.00  0.00  0.00  0.00  0.66  0.00
  YS02001762YS02001759    1.00   0.00  0.00  0.00  1.00  0.00  0.00  0.00  0.04  0.00
  YS02001765YS02001762    1.00   0.00  0.00  0.00  1.00  0.00  0.00  0.00  0.76  0.00
  YS02001767YS02001765    1.00   0.00  0.00  0.00  1.00  0.00  0.00  0.00  0.00  0.00
  YS02001770YS02001767    1.00   0.00  0.00  0.00  1.00  0.00  0.00  0.00  0.00  0.00
  YS02001774YS02001770    1.00   0.00  0.13  0.00  0.69  0.00  0.17  0.00  0.03  0.00
  YS02001779YS02001774    1.00   0.00  0.00  0.00  1.00  0.00  0.00  0.00  0.80  0.00
  YS02001783YS02001784    1.00   0.00  0.18  0.00  0.82  0.00  0.00  0.00  0.56  0.00
  YS02001784YS02001785    1.00   0.00  0.00  0.00  1.00  0.00  0.00  0.00  0.17  0.00
  YS02001786YS02001788    1.00   0.00  0.00  0.00  0.79  0.21  0.00  0.00  0.00  0.00
  YS02001788YS02001790    1.00   0.00  0.00  0.00  0.21  0.79  0.00  0.00  0.81  0.00
  YS02001790YS02001791    1.00   0.00  0.00  0.00  0.01  0.99  0.00  0.00  0.16  0.00
  YS02001791YS02001793    1.00   0.00  0.00  0.00  0.00  1.00  0.00  0.00  0.01  0.00
  YS02001793JiankangQianchi    1.00   0.00  0.00  0.00  0.98  0.02  0.00  0.00  0.97  0.00
  YS02001882YS02001884    1.00   0.15  0.01  0.00  0.84  0.00  0.00  0.00  0.00  0.00
  YS02001884YS02001887    1.00   0.06  0.05  0.00  0.89  0.00  0.00  0.00  0.00  0.00
  YS02001887YS02001890    1.00   0.00  0.00  0.00  0.97  0.00  0.03  0.00  0.00  0.00
  YS02001890YS02001895    1.00   0.00  0.16  0.00  0.83  0.00  0.00  0.00  0.00  0.00
  YS02001895YS02001898    1.00   0.17  0.00  0.00  0.81  0.00  0.02  0.00  0.00  0.00
  YS02001898YS02001901    1.00   0.17  0.00  0.00  0.83  0.00  0.00  0.00  0.01  0.00
  YS02001901YS02001904    1.00   0.17  0.00  0.00  0.83  0.00  0.00  0.00  0.00  0.00
  YS02001904YS02001907    1.00   0.00  0.17  0.00  0.83  0.00  0.00  0.00  0.00  0.00
  YS02001907YS02006553    1.00   0.00  0.02  0.00  0.98  0.00  0.00  0.00  0.00  0.00
  YS02001910YS02001907    1.00   0.00  0.00  0.00  0.97  0.00  0.00  0.03  0.12  0.00
  YS02001915YS02001910    1.00   0.00  0.00  0.00  0.96  0.03  0.00  0.00  0.17  0.00
  YS02001918YS02001915    1.00   0.00  0.00  0.00  0.98  0.02  0.00  0.00  0.77  0.00
  YS02001920YS02001918    1.00   0.00  0.00  0.00  1.00  0.00  0.00  0.00  0.01  0.00
  YS02001923YS02001920    1.00   0.00  0.00  0.00  1.00  0.00  0.00  0.00  0.94  0.00
  YS02001926YS02001923    1.00   0.00  0.07  0.00  0.05  0.00  0.88  0.00  0.00  0.00
  YS02001929YS02001926    1.00   0.00  0.13  0.00  0.87  0.00  0.00  0.00  0.83  0.00
  YS02006553YS02006556    1.00   0.01  0.00  0.00  0.99  0.00  0.00  0.00  0.03  0.00
  YS02006556YS02006558    1.00   0.00  0.00  0.00  1.00  0.00  0.00  0.00  0.00  0.00
  YS02006558YS02006561    1.00   0.18  0.00  0.00  0.05  0.77  0.00  0.00  0.19  0.00
  YS02006561YS02001783    1.00   0.18  0.00  0.00  0.08  0.74  0.00  0.00  0.70  0.00
  YS02163301YS02001633    1.00   0.00  0.16  0.00  0.84  0.00  0.00  0.00  0.00  0.00
  YS02163601YS02164001    1.00   0.00  0.08  0.00  0.92  0.00  0.00  0.00  0.00  0.00
  YS02164001YS02001641    1.00   0.01  0.07  0.00  0.92  0.00  0.00  0.00  0.06  0.00
  
  
  *************************
  Conduit Surcharge Summary
  *************************
  
  ----------------------------------------------------------------------------
                                                           Hours        Hours 
                         --------- Hours Full --------   Above Full   Capacity
  Conduit                Both Ends  Upstream  Dnstream   Normal Flow   Limited
  ----------------------------------------------------------------------------
  WS02003072WS02003073        0.01      0.01      0.01      0.59         0.01
  WS02004401WS02004402        0.01      0.01      0.01      0.01         0.01
  WS02004402WS02004403        0.01      0.01      0.01      0.01         0.01
  WS02004404WS02004405        0.01      0.01      0.01      2.26         0.01
  WS02004405WS02004406        0.01      0.01      0.01      0.50         0.01
  WS02006109WS02006110        0.57      0.58      1.15      0.61         0.01
  WS02006110WS02006113        0.01      0.01      1.13      0.01         0.01
  WS02006111WS02006112        0.01      0.01      1.42      0.01         0.01
  WS02006112WS02006115        0.01      0.01      0.52      0.01         0.01
  WS02006113WS02006111        0.01      0.01      0.01      0.01         0.01
  WS02006115WS02006116        0.01      0.01      0.01      0.01         0.01
  WS02006116WS02004401        0.01      0.01      0.01      0.01         0.01
  WS02006228WS02006109        1.09      1.15      1.09      1.66         1.09
  WS02006229WS02006228        1.08      1.09      1.08      1.39         1.08
  WS02006230WS02006229        1.23      1.35      1.23      2.57         1.23
  WS02006231WS02006230        0.58      0.58      0.61      2.23         0.01
  WS02006232WS02006231        0.61      0.61      1.14      0.64         0.01
  WS02006234WS02006232        1.08      1.08      1.14      0.63         0.64
  WS02006235WS02006234        0.69      0.69      1.10      2.14         0.01
  WS02006238WS02006235        1.11      1.11      1.15      0.01         0.01
  WS02006239WS02006238        1.12      1.13      1.13      1.25         1.05
  WS02006240WS02006239        1.08      1.10      1.09      1.25         0.97
  WS02006242WS02006240        1.09      1.09      1.18      1.49         0.01
  WS02006243WS02006242        1.08      1.08      1.14      0.01         0.01
  WS02006245WS02006243        1.07      1.07      1.07      0.67         0.54
  WS02006247WS02006245        1.06      1.07      1.06      2.09         1.06
  WS02006248WS02006247        1.05      1.05      1.07      0.01         0.01
  WS02006249WS02006248        1.05      1.05      1.05      2.06         0.01
  WS02006251WS02006249        1.04      1.05      1.05      1.34         1.03
  WS02006252WS02006251        1.37      1.37      1.41      1.37         0.01
  WS02006256WS02006235        2.16      2.17      6.03      0.87         0.01
  YS02001580YS02001583        0.47      0.47      0.52      0.01         0.01
  YS02001583YS02001586        0.49      0.49      0.60      0.01         0.01
  YS02001586YS02001590        0.60      0.60      0.67      0.01         0.01
  YS02001590YS02001593        0.67      0.67      0.68      0.71         0.01
  YS02001593YS02001596        0.68      0.68      0.77      0.01         0.01
  YS02001596YS02001600        0.81      0.81      0.92      0.01         0.01
  YS02001600YS02001601        0.99      0.99      1.32      0.01         0.01
  YS02001601YS02001602        1.19      1.19      1.36      0.94         0.01
  YS02001602YS02001605        1.13      1.13      1.19      2.15         0.01
  YS02001605YS02001607        1.07      1.13      1.07      1.29         1.07
  YS02001607YS02001610        0.61      0.61      0.64      0.01         0.01
  YS02001610YS02001613        0.61      0.61      0.64      0.01         0.01
  YS02001613YS02001616        0.57      0.57      0.61      0.01         0.01
  YS02001616YS02001619        0.56      0.56      0.57      0.01         0.01
  YS02001619YS02001622        0.55      0.56      0.55      0.70         0.53
  YS02001622YS02001625        0.55      0.55      0.72      0.01         0.01
  YS02001625YS02001629        0.48      0.48      0.72      0.01         0.01
  YS02001629YS02163301        0.71      0.71      0.71      0.29         0.26
  YS02001633YS02163601        0.73      0.73      0.76      0.44         0.45
  YS02001641YS02001644        0.60      0.64      0.60      1.40         0.60
  YS02001644YS02001647        0.40      0.40      0.60      0.05         0.01
  YS02001647YS02001649        0.40      0.40      0.48      0.01         0.01
  YS02001649YS02001757        0.47      0.48      0.50      0.38         0.30
  YS02001652YS02001649        0.34      0.34      0.48      0.01         0.01
  YS02001655YS02001652        0.19      0.19      0.32      0.01         0.01
  YS02001658YS02001655        0.08      0.08      0.19      0.01         0.01
  YS02001661YS02001658        0.01      0.01      0.08      0.01         0.01
  YS02001664YS02001661        0.01      0.01      0.02      0.01         0.01
  YS02001745YS02001748        0.01      0.01      0.01      0.01         0.01
  YS02001748YS02001751        0.05      0.05      0.11      0.01         0.01
  YS02001751YS02001754        0.11      0.11      0.21      0.01         0.01
  YS02001754YS02001757        0.24      0.24      0.50      0.01         0.01
  YS02001757CaochengTiaoxuchi        0.34      0.50      1.01      0.35         0.15
  YS02001759YS02001757        0.42      0.42      0.50      0.01         0.02
  YS02001762YS02001759        0.39      0.40      0.42      0.01         0.02
  YS02001765YS02001762        0.36      0.36      0.40      0.01         0.01
  YS02001767YS02001765        0.34      0.34      0.36      0.02         0.04
  YS02001770YS02001767        0.34      0.34      0.34      0.46         0.29
  YS02001774YS02001770        0.32      0.32      0.39      0.01         0.01
  YS02001779YS02001774        0.22      0.22      0.39      0.01         0.01
  YS02001783YS02001784        0.42      0.45      0.42      0.58         0.42
  YS02001784YS02001785        0.33      0.42      0.33      0.80         0.33
  YS02001786YS02001788        0.01      0.33      0.01      0.67         0.01
  YS02001790YS02001791        0.01      0.01      0.01      0.41         0.01
  YS02001793JiankangQianchi        0.01      0.01      7.14      0.01         0.01
  YS02001882YS02001884        0.40      0.40      0.41      0.01         0.01
  YS02001884YS02001887        0.43      0.43      0.44      0.01         0.01
  YS02001887YS02001890        0.45      0.45      0.46      0.06         0.01
  YS02001890YS02001895        0.39      0.39      0.48      0.01         0.01
  YS02001895YS02001898        0.38      0.38      0.39      0.01         0.01
  YS02001898YS02001901        0.39      0.39      0.42      0.01         0.01
  YS02001901YS02001904        0.42      0.42      0.42      0.01         0.01
  YS02001904YS02001907        0.42      0.42      0.66      0.01         0.01
  YS02001907YS02006553        0.82      0.82      0.88      0.01         0.01
  YS02001910YS02001907        0.48      0.48      0.64      0.01         0.01
  YS02001915YS02001910        0.39      0.39      0.48      0.01         0.01
  YS02001918YS02001915        0.32      0.32      0.40      0.01         0.01
  YS02001920YS02001918        0.32      0.32      0.33      0.01         0.01
  YS02001923YS02001920        0.27      0.27      0.33      0.01         0.01
  YS02001926YS02001923        0.01      0.01      0.02      0.01         0.01
  YS02001929YS02001926        0.01      0.01      0.02      0.01         0.01
  YS02006553YS02006556        0.56      0.56      0.66      0.01         0.01
  YS02006556YS02006558        0.61      0.61      0.67      0.01         0.01
  YS02006558YS02006561        0.35      0.55      0.35      0.75         0.35
  YS02006561YS02001783        0.29      0.29      0.45      0.01         0.01
  YS02163301YS02001633        0.71      0.71      0.75      0.01         0.01
  YS02163601YS02164001        0.66      0.66      0.76      0.17         0.01
  YS02164001YS02001641        0.64      0.66      0.64      0.71         0.55
  
  
  ***************
  Pumping Summary
  ***************
  
  ---------------------------------------------------------------------------------------------------------
                                                  Min       Avg       Max     Total     Power    % Time Off
                        Percent   Number of      Flow      Flow      Flow    Volume     Usage    Pump Curve
  Pump                 Utilized   Start-Ups       LPS       LPS       LPS  10^6 ltr     Kw-hr    Low   High
  ---------------------------------------------------------------------------------------------------------
  CC-R1                   14.01           5      0.00    683.00    683.00     2.755     48.90    0.0   38.9
  CC-R2                   26.35          39      0.00    683.00    683.00     5.182     90.51    0.0   56.8
  CC-S1                   25.56          29      0.00    200.00    200.00     1.472      9.27    0.0    0.0
  CC-S2                   19.21           4      0.00    200.00    200.00     1.106      6.95    0.0    0.0
  JK-R1                    5.08          24      0.00   1000.00   1000.00     1.463     11.38    0.0    0.0
  JK-R2                    4.86          23      0.00   1000.00   1000.00     1.401     13.11    0.0    0.0
  JK-S                    10.23          34      0.00    300.00    300.00     0.884     15.74    0.0    0.0
  

  Analysis begun on:  Fri Aug  4 11:25:57 2023
  Analysis ended on:  Fri Aug  4 11:26:06 2023
  Total elapsed time: 00:00:09