
  OWA STORM WATER MANAGEMENT MODEL - VERSION v5.1.14 (OWA 2022-07-31)
  --------------------------------------------------------------

  WARNING 04: minimum elevation drop used for Conduit WS02004404WS02004405
  WARNING 03: negative offset ignored for Link YS02001904YS02001907
  
  *********************************************************
  NOTE: The summary statistics displayed in this report are
  based on results found at every computational time step,  
  not just on results from each reporting time step.
  *********************************************************
  
  ****************
  Analysis Options
  ****************
  Flow Units ............... LPS
  Process Models:
    Rainfall/Runoff ........ YES
    RDII ................... NO
    Snowmelt ............... NO
    Groundwater ............ NO
    Flow Routing ........... YES
    Ponding Allowed ........ NO
    Water Quality .......... NO
  Infiltration Method ...... HORTON
  Flow Routing Method ...... DYNWAVE
  Surcharge Method ......... EXTRAN
  Starting Date ............ 08/28/2015 08:00:00
  Ending Date .............. 08/28/2015 16:00:00
  Antecedent Dry Days ...... 8.0
  Report Time Step ......... 00:01:00
  Wet Time Step ............ 00:01:00
  Dry Time Step ............ 00:01:00
  Routing Time Step ........ 30.00 sec
  Variable Time Step ....... YES
  Maximum Trials ........... 8
  Number of Threads ........ 1
  Head Tolerance ........... 0.001500 m
  
  
  **************************        Volume         Depth
  Runoff Quantity Continuity     hectare-m            mm
  **************************     ---------       -------
  Total Precipitation ......         2.644        79.703
  Evaporation Loss .........         0.000         0.000
  Infiltration Loss ........         0.107         3.211
  Surface Runoff ...........         2.504        75.504
  Final Storage ............         0.033         0.998
  Continuity Error (%) .....        -0.013
  
  
  **************************        Volume        Volume
  Flow Routing Continuity        hectare-m      10^6 ltr
  **************************     ---------     ---------
  Dry Weather Inflow .......         0.000         0.000
  Wet Weather Inflow .......         2.503        25.035
  Groundwater Inflow .......         0.000         0.000
  RDII Inflow ..............         0.000         0.000
  External Inflow ..........         0.083         0.834
  External Outflow .........         2.342        23.421
  Flooding Loss ............         0.345         3.445
  Evaporation Loss .........         0.000         0.000
  Exfiltration Loss ........         0.000         0.000
  Initial Stored Volume ....         0.243         2.431
  Final Stored Volume ......         0.179         1.788
  Continuity Error (%) .....        -1.252
  
  
  *************************
  Highest Continuity Errors
  *************************
  Node YS02001583 (-4.69%)
  Node YS02001884 (3.40%)
  Node YS02001774 (1.75%)
  Node WS02006256 (-1.28%)
  Node WS02006110 (-1.04%)
  
  
  ***************************
  Time-Step Critical Elements
  ***************************
  Link WS02004404WS02004405 (22.37%)
  Link YS02001791YS02001793 (14.99%)
  Link WS02006252WS02006251 (14.86%)
  Link WS02006238WS02006235 (12.07%)
  Link YS02006556YS02006558 (9.68%)
  
  
  ********************************
  Highest Flow Instability Indexes
  ********************************
  Link WS02006252WS02006251 (42)
  Link WS02006238WS02006235 (41)
  Link WS02006113WS02006111 (39)
  Link YS02001586YS02001590 (28)
  Link WS02006235WS02006234 (28)
  
  
  *************************
  Routing Time Step Summary
  *************************
  Minimum Time Step           :     0.01 sec
  Average Time Step           :     2.62 sec
  Maximum Time Step           :    30.00 sec
  Percent in Steady State     :    -0.00
  Average Iterations per Step :     4.70
  Percent Not Converging      :    34.38
  
  
  ***************************
  Subcatchment Runoff Summary
  ***************************
  
  ------------------------------------------------------------------------------------------------------------------------------
                            Total      Total      Total      Total     Imperv       Perv      Total       Total     Peak  Runoff
                           Precip      Runon       Evap      Infil     Runoff     Runoff     Runoff      Runoff   Runoff   Coeff
  Subcatchment                 mm         mm         mm         mm         mm         mm         mm    10^6 ltr      LPS
  ------------------------------------------------------------------------------------------------------------------------------
  sub60                     79.70       0.00       0.00       1.94      68.93       7.63      76.56        1.01   202.22   0.961
  sub61                     79.70       0.00       0.00       2.81      65.02      10.74      75.76        1.39   278.61   0.951
  sub62                     79.70       0.00       0.00       1.29      72.04       5.09      77.12        2.11   417.19   0.968
  sub63                     79.70       0.00       0.00       5.19      55.62      17.92      73.54        1.67   319.09   0.923
  sub64                     79.70       0.00       0.00       2.63      66.54       9.33      75.86        1.82   349.54   0.952
  sub65                     79.70       0.00       0.00       2.27      68.08       8.09      76.17        2.10   398.13   0.956
  sub66                     79.70       0.00       0.00       6.33      55.50      16.79      72.29        3.37   554.56   0.907
  sub67                     79.70       0.00       0.00       1.23      72.08       5.15      77.23        1.44   290.77   0.969
  sub68                     79.70       0.00       0.00       2.33      67.35       8.83      76.18        2.10   416.54   0.956
  sub69                     79.70       0.00       0.00       2.12      67.63       9.84      77.47        2.87   538.35   0.972
  sub70                     79.70       0.00       0.00       6.84      52.43      20.26      72.69        2.10   329.08   0.912
  sub71                     79.70       0.00       0.00       1.33      71.99       5.05      77.04        2.01   385.56   0.967
  sub72                     79.70       0.00       0.00       1.18      72.71       4.40      77.11        1.06   194.25   0.967
  
  
  ******************
  Node Depth Summary
  ******************
  
  ---------------------------------------------------------------------------------
                                 Average  Maximum  Maximum  Time of Max    Reported
                                   Depth    Depth      HGL   Occurrence   Max Depth
  Node                 Type       Meters   Meters   Meters  days hr:min      Meters
  ---------------------------------------------------------------------------------
  WS02003060           JUNCTION     0.26     0.38     5.32     0  03:03        0.38
  WS02003066           JUNCTION     0.21     0.30     5.85     0  03:02        0.30
  WS02003067           JUNCTION     0.54     0.70     6.02     0  03:02        0.70
  WS02003069           JUNCTION     0.29     0.43     5.02     0  03:03        0.43
  WS02003072           JUNCTION     0.35     0.50     4.87     0  03:04        0.50
  WS02003073           JUNCTION     0.20     0.30     4.36     0  03:05        0.30
  WS02004401           JUNCTION     0.65     0.88     6.88     0  03:00        0.88
  WS02004402           JUNCTION     0.69     0.90     6.86     0  03:00        0.90
  WS02004403           JUNCTION     0.71     0.92     6.85     0  03:00        0.92
  WS02004404           JUNCTION     0.78     1.05     6.90     0  02:59        1.05
  WS02004405           JUNCTION     0.77     0.97     6.82     0  03:00        0.96
  WS02004406           JUNCTION     0.78     0.96     6.79     0  03:00        0.96
  WS02004407           JUNCTION     0.20     0.30     6.61     0  03:00        0.30
  WS02004409           JUNCTION     0.44     0.67     6.44     0  03:01        0.67
  WS02004410           JUNCTION     0.47     0.68     6.40     0  03:01        0.68
  WS02004411           JUNCTION     0.49     0.69     6.37     0  03:01        0.69
  WS02004412           JUNCTION     0.51     0.70     6.34     0  03:02        0.70
  WS02004413           JUNCTION     0.67     0.86     6.33     0  03:02        0.86
  WS02006109           JUNCTION     0.70     1.68     8.30     0  02:14        1.00
  WS02006110           JUNCTION     0.70     1.84     8.43     0  02:14        0.99
  WS02006111           JUNCTION     0.19     1.67     8.37     0  00:00        0.56
  WS02006112           JUNCTION     0.82     2.68     8.56     0  00:00        1.29
  WS02006113           JUNCTION     0.30     1.50     8.40     0  00:00        0.45
  WS02006115           JUNCTION     0.54     1.69     7.83     0  00:00        0.86
  WS02006116           JUNCTION     0.62     1.11     7.15     0  00:00        0.86
  WS02006228           JUNCTION     0.71     1.64     8.29     0  00:00        1.02
  WS02006229           JUNCTION     0.68     1.54     8.23     0  02:14        1.50
  WS02006230           JUNCTION     0.70     1.83     8.58     0  02:46        1.17
  WS02006231           JUNCTION     0.49     1.49     8.61     0  02:14        0.93
  WS02006232           JUNCTION     0.63     1.65     8.69     0  02:14        1.14
  WS02006234           JUNCTION     0.58     1.60     8.76     0  02:14        1.26
  WS02006235           JUNCTION     0.63     1.70     8.87     0  03:02        1.54
  WS02006238           JUNCTION     0.66     1.77     8.91     0  03:02        1.72
  WS02006239           JUNCTION     0.63     1.76     8.97     0  03:02        1.47
  WS02006240           JUNCTION     0.60     1.66     8.96     0  03:02        1.45
  WS02006242           JUNCTION     0.67     1.55     8.82     0  03:02        1.54
  WS02006243           JUNCTION     0.60     1.45     8.87     0  03:02        1.42
  WS02006245           JUNCTION     0.60     1.38     8.86     0  03:02        1.35
  WS02006247           JUNCTION     0.62     1.30     8.80     0  03:02        1.30
  WS02006248           JUNCTION     0.58     1.10     8.69     0  01:17        1.10
  WS02006249           JUNCTION     0.61     1.09     8.69     0  01:17        1.09
  WS02006251           JUNCTION     0.61     1.51     9.18     0  01:27        1.13
  WS02006252           JUNCTION     0.40     1.37     9.61     0  01:26        1.23
  WS02006256           JUNCTION     1.23     2.35     9.28     0  00:05        2.35
  WSF200               JUNCTION     0.19     0.29     5.52     0  03:02        0.29
  YS02001580           JUNCTION     0.26     1.05     9.59     0  01:16        0.77
  YS02001583           JUNCTION     0.30     1.14     9.64     0  01:16        0.84
  YS02001586           JUNCTION     0.45     1.13     9.30     0  01:16        1.13
  YS02001590           JUNCTION     0.60     1.40     9.26     0  01:34        1.40
  YS02001593           JUNCTION     0.53     1.32     9.18     0  01:16        1.30
  YS02001596           JUNCTION     0.71     1.72     9.14     0  01:34        1.72
  YS02001600           JUNCTION     0.82     1.87     9.00     0  01:14        1.87
  YS02001601           JUNCTION     1.02     2.06     8.90     0  01:14        2.06
  YS02001602           JUNCTION     0.90     1.87     8.77     0  01:16        1.87
  YS02001605           JUNCTION     0.84     1.78     8.68     0  01:16        1.78
  YS02001607           JUNCTION     0.79     1.68     8.53     0  01:16        1.66
  YS02001610           JUNCTION     0.83     1.68     8.48     0  01:16        1.68
  YS02001613           JUNCTION     0.79     1.70     8.54     0  01:16        1.70
  YS02001616           JUNCTION     0.72     1.61     8.52     0  01:16        1.61
  YS02001619           JUNCTION     0.70     1.61     8.54     0  01:16        1.61
  YS02001622           JUNCTION     0.69     1.59     8.49     0  02:30        1.59
  YS02001625           JUNCTION     0.95     1.78     8.38     0  01:25        1.78
  YS02001629           JUNCTION     0.85     1.85     8.40     0  01:16        1.85
  YS02001633           JUNCTION     0.92     2.03     8.49     0  02:02        2.01
  YS02001641           JUNCTION     0.85     1.98     8.42     0  02:15        1.93
  YS02001644           JUNCTION     0.83     1.92     8.35     0  01:47        1.89
  YS02001647           JUNCTION     0.60     1.76     8.37     0  02:15        1.58
  YS02001649           JUNCTION     0.68     1.95     8.34     0  02:15        1.62
  YS02001652           JUNCTION     0.54     2.16     8.76     0  02:00        1.64
  YS02001655           JUNCTION     0.42     2.20     9.05     0  01:47        1.66
  YS02001658           JUNCTION     0.29     1.58     8.72     0  02:16        1.01
  YS02001661           JUNCTION     0.22     0.64     8.04     0  02:14        0.62
  YS02001664           JUNCTION     0.09     0.21     8.14     0  01:27        0.21
  YS02001745           JUNCTION     0.10     0.42     7.94     0  02:14        0.41
  YS02001748           JUNCTION     0.27     0.82     7.90     0  02:14        0.80
  YS02001751           JUNCTION     0.36     1.30     8.18     0  02:15        0.99
  YS02001754           JUNCTION     0.48     1.49     8.09     0  02:15        1.23
  YS02001757           JUNCTION     0.69     1.80     8.06     0  02:15        1.60
  YS02001759           JUNCTION     0.62     1.71     8.07     0  02:15        1.52
  YS02001762           JUNCTION     0.61     1.85     8.25     0  01:34        1.85
  YS02001765           JUNCTION     0.58     1.63     8.08     0  02:15        1.49
  YS02001767           JUNCTION     0.56     1.56     8.05     0  02:57        1.45
  YS02001770           JUNCTION     0.57     1.63     8.13     0  02:57        1.46
  YS02001774           JUNCTION     0.64     2.03     8.46     0  01:34        2.03
  YS02001779           JUNCTION     0.45     1.49     8.17     0  02:57        1.28
  YS02001783           JUNCTION     0.40     1.26     7.40     0  01:34        1.25
  YS02001784           JUNCTION     0.40     1.25     7.31     0  01:34        1.09
  YS02001786           JUNCTION     0.33     0.87     6.90     0  01:25        0.86
  YS02001788           JUNCTION     0.25     0.61     6.59     0  01:26        0.61
  YS02001790           JUNCTION     0.29     0.71     6.36     0  01:38        0.71
  YS02001791           JUNCTION     0.18     0.43     5.90     0  01:39        0.43
  YS02001793           JUNCTION     0.09     0.29     5.12     0  01:35        0.29
  YS02001882           JUNCTION     0.47     1.83     8.55     0  01:25        1.83
  YS02001884           JUNCTION     0.56     1.93     8.55     0  01:25        1.93
  YS02001887           JUNCTION     0.64     1.96     8.50     0  01:25        1.96
  YS02001890           JUNCTION     0.67     1.81     8.32     0  01:25        1.81
  YS02001895           JUNCTION     0.44     1.64     8.39     0  01:25        1.64
  YS02001898           JUNCTION     0.45     1.61     8.35     0  01:25        1.61
  YS02001901           JUNCTION     0.57     1.87     8.48     0  01:34        1.87
  YS02001904           JUNCTION     0.55     1.71     8.34     0  01:34        1.71
  YS02001907           JUNCTION     0.86     1.96     8.25     0  01:25        1.96
  YS02001910           JUNCTION     0.66     1.81     8.32     0  01:34        1.81
  YS02001915           JUNCTION     0.47     1.61     8.33     0  01:26        1.60
  YS02001918           JUNCTION     0.27     1.29     8.35     0  01:26        1.27
  YS02001920           JUNCTION     0.34     1.37     8.37     0  01:26        1.34
  YS02001923           JUNCTION     0.20     1.12     8.38     0  01:26        1.10
  YS02001926           JUNCTION     0.22     0.95     8.39     0  01:26        0.92
  YS02001929           JUNCTION     0.13     0.70     8.39     0  01:26        0.68
  YS02006553           JUNCTION     0.86     2.19     8.47     0  01:34        2.19
  YS02006556           JUNCTION     0.83     1.94     8.25     0  01:25        1.91
  YS02006558           JUNCTION     0.87     1.95     8.22     0  01:25        1.93
  YS02006561           JUNCTION     0.24     0.88     7.54     0  01:25        0.85
  YS02163301           JUNCTION     0.87     1.93     8.45     0  02:02        1.92
  YS02163601           JUNCTION     0.93     2.08     8.47     0  02:02        2.03
  YS02164001           JUNCTION     0.85     2.00     8.46     0  02:15        1.94
  CC-1                 OUTFALL      0.00     0.00     0.00     0  00:00        0.00
  CC-2                 OUTFALL      0.00     0.00     0.00     0  00:00        0.00
  JK-1                 OUTFALL      0.00     0.00     0.00     0  00:00        0.00
  JK-2                 OUTFALL      0.00     0.00     0.00     0  00:00        0.00
  WSC                  OUTFALL      0.20     0.30     0.97     0  03:05        0.30
  CC-storage           STORAGE      1.05     1.79     7.29     0  02:57        1.79
  JK-storage           STORAGE      1.84     4.23     5.03     0  01:45        4.21
  
  
  *******************
  Node Inflow Summary
  *******************
  
  -------------------------------------------------------------------------------------------------
                                  Maximum  Maximum                  Lateral       Total        Flow
                                  Lateral    Total  Time of Max      Inflow      Inflow     Balance
                                   Inflow   Inflow   Occurrence      Volume      Volume       Error
  Node                 Type           LPS      LPS  days hr:min    10^6 ltr    10^6 ltr     Percent
  -------------------------------------------------------------------------------------------------
  WS02003060           JUNCTION     16.53   556.29     0  03:02       0.476        5.82       0.036
  WS02003066           JUNCTION      0.00   539.26     0  03:02           0        5.35       0.024
  WS02003067           JUNCTION      0.00   539.03     0  03:02           0        5.35       0.075
  WS02003069           JUNCTION      0.32   556.38     0  03:03     0.00922        5.83       0.062
  WS02003072           JUNCTION      0.00   555.31     0  03:04           0        5.83       0.114
  WS02003073           JUNCTION      1.82   556.42     0  03:04      0.0524        5.87       0.087
  WS02004401           JUNCTION      0.00  1786.04     0  00:00           0        5.45       0.195
  WS02004402           JUNCTION      0.00  1248.69     0  00:01           0        5.44       0.196
  WS02004403           JUNCTION      0.00   929.44     0  00:01           0        5.43       0.192
  WS02004404           JUNCTION      0.00   877.02     0  00:01           0        5.42       0.096
  WS02004405           JUNCTION      0.00   827.31     0  00:01           0        5.41       0.176
  WS02004406           JUNCTION      0.00   768.45     0  00:02           0        5.41       0.389
  WS02004407           JUNCTION      0.00   541.45     0  03:00           0        5.38       0.015
  WS02004409           JUNCTION      0.00   540.87     0  03:00           0        5.38       0.045
  WS02004410           JUNCTION      0.00   540.51     0  03:01           0        5.38       0.078
  WS02004411           JUNCTION      0.00   539.97     0  03:01           0        5.38       0.100
  WS02004412           JUNCTION      0.00   540.01     0  03:01           0        5.37       0.132
  WS02004413           JUNCTION      0.00   539.61     0  03:02           0        5.36       0.245
  WS02006109           JUNCTION      0.00  1446.81     0  00:00           0        5.34      -0.122
  WS02006110           JUNCTION      0.00   560.71     0  02:41           0        5.32      -1.030
  WS02006111           JUNCTION      0.00  1180.41     0  00:00           0        5.37      -0.792
  WS02006112           JUNCTION      0.00  2307.30     0  00:00           0        5.42      -0.009
  WS02006113           JUNCTION      0.00   574.16     0  02:14           0        5.34      -0.715
  WS02006115           JUNCTION      0.00   953.54     0  00:00           0        5.39      -0.668
  WS02006116           JUNCTION      0.00  1264.47     0  00:00           0        5.42      -0.513
  WS02006228           JUNCTION      0.00   869.18     0  00:00           0        5.33      -0.026
  WS02006229           JUNCTION      0.00   560.48     0  02:46           0        5.31      -0.030
  WS02006230           JUNCTION     10.28   706.67     0  00:00       0.296         5.3       0.016
  WS02006231           JUNCTION      0.00   584.00     0  01:45           0        4.99      -0.040
  WS02006232           JUNCTION      0.00   582.80     0  01:45           0        4.99       0.182
  WS02006234           JUNCTION      0.00   576.32     0  01:45           0        4.98      -0.169
  WS02006235           JUNCTION      0.00   569.00     0  01:19           0        5.04       0.170
  WS02006238           JUNCTION      0.00   426.01     0  02:00           0        3.83      -0.033
  WS02006239           JUNCTION      0.00   424.78     0  02:00           0        3.79      -0.052
  WS02006240           JUNCTION      0.00   422.87     0  03:51           0        3.77      -0.004
  WS02006242           JUNCTION      0.00   424.04     0  03:51           0        3.77       0.049
  WS02006243           JUNCTION      0.00   424.48     0  03:51           0        3.76      -0.031
  WS02006245           JUNCTION      0.00   425.55     0  03:51           0        3.77       0.209
  WS02006247           JUNCTION      0.00   425.51     0  03:51           0        3.77      -0.016
  WS02006248           JUNCTION      0.00   425.04     0  03:51           0        3.77       0.019
  WS02006249           JUNCTION      0.00   455.87     0  01:10           0        4.14       0.256
  WS02006251           JUNCTION      0.00   413.81     0  01:34           0        4.14      -0.001
  WS02006252           JUNCTION      0.00   400.00     0  01:10           0        4.13      -0.221
  WS02006256           JUNCTION      0.00   300.00     0  00:05           0        1.83      -1.264
  WSF200               JUNCTION      0.00   539.40     0  03:02           0        5.35       0.006
  YS02001580           JUNCTION      0.00    77.13     0  01:16           0      0.0045       1.669
  YS02001583           JUNCTION      0.00   118.99     0  01:16           0      0.0161      -4.478
  YS02001586           JUNCTION    329.08   329.21     0  01:44         2.1        2.11       0.060
  YS02001590           JUNCTION      0.00   319.34     0  01:34           0        2.09      -0.026
  YS02001593           JUNCTION      0.00   319.01     0  01:34           0        2.09       0.009
  YS02001596           JUNCTION      0.00   317.93     0  01:39           0        2.09      -0.016
  YS02001600           JUNCTION      0.00   317.97     0  01:30           0        2.09       0.016
  YS02001601           JUNCTION    538.35   854.27     0  01:28        2.87        4.96       0.012
  YS02001602           JUNCTION      0.00   536.78     0  01:15           0        3.33       0.014
  YS02001605           JUNCTION      0.00   535.92     0  01:15           0        3.07       0.016
  YS02001607           JUNCTION      0.00   535.27     0  01:15           0        3.07       0.057
  YS02001610           JUNCTION      0.00   541.28     0  01:16           0        3.07       0.085
  YS02001613           JUNCTION      0.00   545.33     0  01:16           0        2.84       0.062
  YS02001616           JUNCTION      0.00   551.73     0  01:16           0        2.84       0.015
  YS02001619           JUNCTION    554.56   908.88     0  01:23        3.37        6.21      -0.004
  YS02001622           JUNCTION      0.00   909.25     0  01:23           0         6.2      -0.001
  YS02001625           JUNCTION      0.00   920.99     0  01:16           0         6.2       0.189
  YS02001629           JUNCTION      0.00   921.36     0  01:16           0        5.95      -0.013
  YS02001633           JUNCTION    398.13  1294.42     0  01:23         2.1        8.05       0.037
  YS02001641           JUNCTION      0.00  1295.61     0  01:23           0        8.05       0.038
  YS02001644           JUNCTION    349.54  1634.18     0  01:24        1.82        9.86       0.029
  YS02001647           JUNCTION      0.00  1634.30     0  01:24           0        9.84      -0.003
  YS02001649           JUNCTION      0.00  1949.58     0  01:23           0        11.5       0.033
  YS02001652           JUNCTION      0.00   382.46     0  01:44           0        1.69       0.008
  YS02001655           JUNCTION      0.00   489.42     0  01:33           0        1.67      -0.869
  YS02001658           JUNCTION      0.00   673.48     0  02:14           0        1.75      -0.388
  YS02001661           JUNCTION      0.00   481.82     0  02:15           0        1.75       0.168
  YS02001664           JUNCTION    319.09   319.09     0  01:27        1.67        1.67      -0.013
  YS02001745           JUNCTION    202.22   204.08     0  02:13        1.01        1.01       0.278
  YS02001748           JUNCTION      0.00   341.38     0  02:12           0        1.01      -0.292
  YS02001751           JUNCTION      0.00   255.89     0  01:29           0        1.01      -0.074
  YS02001754           JUNCTION      0.00   279.77     0  01:28           0        1.01      -0.285
  YS02001757           JUNCTION      0.00  2780.76     0  01:23           0          16       0.031
  YS02001759           JUNCTION    278.61   703.36     0  01:27        1.39         3.5      -0.033
  YS02001762           JUNCTION      0.00   426.40     0  01:27           0        2.11       0.008
  YS02001765           JUNCTION      0.00   433.58     0  01:26           0        2.11       0.017
  YS02001767           JUNCTION      0.00   429.41     0  01:24           0        2.11       0.008
  YS02001770           JUNCTION    417.19   450.89     0  01:26        2.11        2.17      -0.016
  YS02001774           JUNCTION      0.00    93.61     0  01:25           0      0.0871       1.781
  YS02001779           JUNCTION      0.00    71.97     0  01:25           0      0.0305      -1.346
  YS02001783           JUNCTION      0.00  1141.62     0  01:26           0        6.48       0.001
  YS02001784           JUNCTION      0.00  1141.69     0  01:26           0        6.48       0.003
  YS02001786           JUNCTION      0.00  1141.60     0  01:26           0        6.48       0.005
  YS02001788           JUNCTION      0.00  1141.60     0  01:26           0        6.48       0.004
  YS02001790           JUNCTION      0.00  1152.29     0  01:29           0        6.48       0.013
  YS02001791           JUNCTION      0.00  1267.03     0  01:32           0        6.48      -0.020
  YS02001793           JUNCTION      0.00  1218.04     0  01:27           0        6.48       0.003
  YS02001882           JUNCTION      0.00    80.35     0  01:14           0      0.0183       2.901
  YS02001884           JUNCTION      0.00   137.51     0  01:13           0      0.0573       3.520
  YS02001887           JUNCTION    290.77   314.69     0  01:25        1.44        1.47       0.296
  YS02001890           JUNCTION      0.00   319.79     0  01:25           0        1.43       0.285
  YS02001895           JUNCTION      0.00   316.68     0  01:23           0        1.42       0.183
  YS02001898           JUNCTION      0.00   315.71     0  01:23           0        1.42      -0.073
  YS02001901           JUNCTION      0.00   320.89     0  01:23           0        1.43       0.195
  YS02001904           JUNCTION      0.00   324.47     0  01:23           0        1.44       0.166
  YS02001907           JUNCTION      0.00   953.84     0  01:27           0        4.52       0.368
  YS02001910           JUNCTION      0.00   666.28     0  01:27           0        3.07       0.211
  YS02001915           JUNCTION    385.56   665.64     0  01:27        2.01        3.07       0.026
  YS02001918           JUNCTION      0.00   279.35     0  01:27           0        1.06       0.009
  YS02001920           JUNCTION      0.00   278.59     0  01:27           0        1.06       0.054
  YS02001923           JUNCTION      0.00   277.28     0  01:26           0        1.06      -0.013
  YS02001926           JUNCTION      0.00   240.34     0  01:26           0        1.06       0.038
  YS02001929           JUNCTION    194.25   194.25     0  01:29        1.06        1.06      -0.010
  YS02006553           JUNCTION      0.00   778.09     0  01:34           0        4.46       0.257
  YS02006556           JUNCTION      0.00   780.72     0  01:34           0        4.48       0.162
  YS02006558           JUNCTION    416.54  1142.23     0  01:29         2.1        6.54       0.042
  YS02006561           JUNCTION      0.00  1141.72     0  01:26           0        6.48       0.003
  YS02163301           JUNCTION      0.00   911.15     0  01:23           0        5.96       0.026
  YS02163601           JUNCTION      0.00  1294.22     0  01:23           0        8.04       0.063
  YS02164001           JUNCTION      0.00  1294.31     0  01:23           0        8.04       0.035
  CC-1                 OUTFALL       0.00   683.00     0  00:05           0        6.92       0.000
  CC-2                 OUTFALL       0.00   683.00     0  00:05           0        5.85       0.000
  JK-1                 OUTFALL       0.00  1000.00     0  00:05           0        2.63       0.000
  JK-2                 OUTFALL       0.00  1000.00     0  00:05           0        2.16       0.000
  WSC                  OUTFALL       0.00   555.90     0  03:05           0        5.87       0.000
  CC-storage           STORAGE       0.00  2650.36     0  01:29           0        18.3      -0.178
  JK-storage           STORAGE       0.00  1243.12     0  01:27           0        6.63      -0.266
  
  
  **********************
  Node Surcharge Summary
  **********************
  
  Surcharging occurs when water rises above the top of the highest conduit.
  ---------------------------------------------------------------------
                                               Max. Height   Min. Depth
                                   Hours       Above Crown    Below Rim
  Node                 Type      Surcharged         Meters       Meters
  ---------------------------------------------------------------------
  WS02004404           JUNCTION        0.03          0.051        2.729
  WS02006109           JUNCTION        2.64          0.857        0.963
  WS02006110           JUNCTION        1.23          0.933        0.917
  WS02006111           JUNCTION        0.01          0.856        1.014
  WS02006112           JUNCTION        1.47          1.680        0.000
  WS02006113           JUNCTION        0.01          0.705        1.225
  WS02006115           JUNCTION        0.01          0.682        1.568
  WS02006116           JUNCTION        0.01          0.053        2.237
  WS02006228           JUNCTION        2.63          0.810        1.390
  WS02006229           JUNCTION        2.64          0.741        1.709
  WS02006230           JUNCTION        1.25          0.754        0.816
  WS02006231           JUNCTION        1.43          0.775        0.755
  WS02006232           JUNCTION        2.67          0.948        0.532
  WS02006234           JUNCTION        1.82          0.884        0.356
  WS02006235           JUNCTION        2.60          0.993        0.297
  WS02006238           JUNCTION        2.64          1.047        0.383
  WS02006239           JUNCTION        2.62          1.018        0.272
  WS02006240           JUNCTION        2.64          0.955        0.435
  WS02006242           JUNCTION        2.65          0.820        0.000
  WS02006243           JUNCTION        2.64          0.744        0.026
  WS02006245           JUNCTION        2.61          0.667        0.183
  WS02006247           JUNCTION        2.61          0.595        0.165
  WS02006248           JUNCTION        2.60          0.380        0.000
  WS02006249           JUNCTION        2.60          0.390        0.000
  WS02006251           JUNCTION        1.50          0.481        0.699
  WS02006252           JUNCTION        2.75          0.965        0.135
  WS02006256           JUNCTION        6.08          2.050        0.000
  YS02001580           JUNCTION        1.15          0.450        0.000
  YS02001583           JUNCTION        1.18          0.500        0.000
  YS02001586           JUNCTION        1.80          0.510        0.000
  YS02001590           JUNCTION        1.86          0.750        0.000
  YS02001593           JUNCTION        1.86          0.697        0.143
  YS02001596           JUNCTION        1.94          0.988        0.082
  YS02001600           JUNCTION        2.01          1.190        0.000
  YS02001601           JUNCTION        2.19          1.440        0.000
  YS02001602           JUNCTION        2.13          1.270        0.000
  YS02001605           JUNCTION        2.11          1.180        0.000
  YS02001607           JUNCTION        1.84          0.680        0.000
  YS02001610           JUNCTION        1.86          0.680        0.000
  YS02001613           JUNCTION        1.84          0.700        0.000
  YS02001616           JUNCTION        1.81          0.610        0.000
  YS02001619           JUNCTION        1.80          0.610        0.000
  YS02001622           JUNCTION        1.80          0.591        0.029
  YS02001625           JUNCTION        1.93          0.780        0.000
  YS02001629           JUNCTION        1.76          0.470        0.000
  YS02001633           JUNCTION        1.95          1.015        0.045
  YS02001641           JUNCTION        1.93          0.980        0.120
  YS02001644           JUNCTION        1.90          0.920        0.000
  YS02001647           JUNCTION        1.66          0.760        0.140
  YS02001649           JUNCTION        1.77          0.945        0.105
  YS02001652           JUNCTION        1.59          1.130        0.000
  YS02001655           JUNCTION        0.56          1.200        0.000
  YS02001658           JUNCTION        0.01          0.581        0.719
  YS02001751           JUNCTION        0.01          0.300        0.900
  YS02001754           JUNCTION        1.43          0.436        0.714
  YS02001757           JUNCTION        1.83          0.801        0.409
  YS02001759           JUNCTION        1.73          0.706        0.504
  YS02001762           JUNCTION        1.70          0.852        0.298
  YS02001765           JUNCTION        1.66          0.630        0.470
  YS02001767           JUNCTION        1.64          0.565        0.465
  YS02001770           JUNCTION        1.61          0.600        0.320
  YS02001774           JUNCTION        1.69          1.034        0.016
  YS02001779           JUNCTION        1.40          0.486        0.194
  YS02001783           JUNCTION        1.03          0.457        1.143
  YS02001784           JUNCTION        0.93          0.445        1.045
  YS02001786           JUNCTION        0.48          0.073        1.357
  YS02001882           JUNCTION        0.66          0.830        0.000
  YS02001884           JUNCTION        0.72          0.870        0.000
  YS02001887           JUNCTION        0.99          0.910        0.040
  YS02001890           JUNCTION        1.04          0.760        0.000
  YS02001895           JUNCTION        0.62          0.640        0.110
  YS02001898           JUNCTION        0.61          0.583        0.157
  YS02001901           JUNCTION        0.87          0.870        0.000
  YS02001904           JUNCTION        0.79          0.709        0.141
  YS02001907           JUNCTION        1.81          0.950        0.000
  YS02001910           JUNCTION        1.10          0.810        0.290
  YS02001915           JUNCTION        0.66          0.608        0.392
  YS02001918           JUNCTION        0.45          0.286        0.524
  YS02001920           JUNCTION        0.48          0.365        0.775
  YS02006553           JUNCTION        1.82          1.190        0.000
  YS02006556           JUNCTION        1.29          0.897        0.453
  YS02006558           JUNCTION        1.26          0.849        0.551
  YS02006561           JUNCTION        0.38          0.077        1.073
  YS02163301           JUNCTION        1.94          0.933        0.097
  YS02163601           JUNCTION        1.98          1.076        0.004
  YS02164001           JUNCTION        1.93          0.998        0.102
  
  
  *********************
  Node Flooding Summary
  *********************
  
  Flooding refers to all water that overflows a node, whether it ponds or not.
  --------------------------------------------------------------------------
                                                             Total   Maximum
                                 Maximum   Time of Max       Flood    Ponded
                        Hours       Rate    Occurrence      Volume     Depth
  Node                 Flooded       LPS   days hr:min    10^6 ltr    Meters
  --------------------------------------------------------------------------
  WS02006112              0.01   1405.86      0  00:00       0.047     0.000
  WS02006242              0.01     13.11      0  03:02       0.000     0.000
  WS02006248              0.01     40.75      0  01:27       0.000     0.000
  WS02006249              1.47    119.78      0  01:27       0.358     0.000
  WS02006256              1.69    285.75      0  04:40       0.629     0.000
  YS02001580              0.01     35.07      0  01:16       0.000     0.000
  YS02001583              0.01     80.41      0  01:16       0.000     0.000
  YS02001586              0.37     64.77      0  01:16       0.008     0.000
  YS02001590              0.01      0.06      0  01:34       0.000     0.000
  YS02001600              0.01     11.30      0  01:34       0.000     0.000
  YS02001601              1.75    456.48      0  01:28       1.627     0.000
  YS02001602              1.60     61.98      0  01:30       0.260     0.000
  YS02001605              0.01      5.65      0  01:16       0.000     0.000
  YS02001607              0.01      6.47      0  01:16       0.000     0.000
  YS02001610              0.99    107.58      0  01:44       0.234     0.000
  YS02001613              0.01     13.07      0  01:16       0.000     0.000
  YS02001616              0.01     13.76      0  01:16       0.000     0.000
  YS02001619              0.01      7.38      0  01:16       0.000     0.000
  YS02001625              0.96    174.60      0  01:44       0.245     0.000
  YS02001629              0.01     99.71      0  01:16       0.001     0.000
  YS02001644              0.01     11.69      0  02:15       0.000     0.000
  YS02001652              0.01     21.88      0  02:00       0.000     0.000
  YS02001655              0.01    295.52      0  01:58       0.001     0.000
  YS02001882              0.01      1.34      0  01:25       0.000     0.000
  YS02001884              0.01      1.38      0  01:25       0.000     0.000
  YS02001890              0.01     16.72      0  01:25       0.000     0.000
  YS02001901              0.01      0.87      0  01:34       0.000     0.000
  YS02001907              0.19    230.20      0  01:27       0.056     0.000
  YS02006553              0.01      1.13      0  01:34       0.000     0.000
  
  
  **********************
  Storage Volume Summary
  **********************
  
  --------------------------------------------------------------------------------------------------
                         Average     Avg  Evap Exfil       Maximum     Max    Time of Max    Maximum
                          Volume    Pcnt  Pcnt  Pcnt        Volume    Pcnt     Occurrence    Outflow
  Storage Unit           1000 m3    Full  Loss  Loss       1000 m3    Full    days hr:min        LPS
  --------------------------------------------------------------------------------------------------
  CC-storage               2.940      46     0     0         4.984      78       0  02:57    1766.00
  JK-storage               0.092      32     0     0         0.212      73       0  01:45    2300.00
  
  
  ***********************
  Outfall Loading Summary
  ***********************
  
  -----------------------------------------------------------
                         Flow       Avg       Max       Total
                         Freq      Flow      Flow      Volume
  Outfall Node           Pcnt       LPS       LPS    10^6 ltr
  -----------------------------------------------------------
  CC-1                  58.62    683.00    683.00       6.923
  CC-2                  50.97    683.00    683.00       5.848
  JK-1                  15.85   1000.00   1000.00       2.628
  JK-2                  12.26   1000.00   1000.00       2.155
  WSC                   99.99    312.49    555.90       5.866
  -----------------------------------------------------------
  System                47.54   3678.49    555.90      23.420
  
  
  ********************
  Link Flow Summary
  ********************
  
  -----------------------------------------------------------------------------
                                 Maximum  Time of Max   Maximum    Max/    Max/
                                  |Flow|   Occurrence   |Veloc|    Full    Full
  Link                 Type          LPS  days hr:min     m/sec    Flow   Depth
  -----------------------------------------------------------------------------
  1                    CONDUIT    555.90     0  03:05      2.83    0.19    0.30
  WS02003060WS02003069 CONDUIT    556.06     0  03:03      1.64    0.22    0.34
  WS02003066WSF200     CONDUIT    539.40     0  03:02      2.85    0.09    0.22
  WS02003067WS02003066 CONDUIT    539.26     0  03:02      1.21    0.17    0.42
  WS02003069WS02003072 CONDUIT    555.31     0  03:04      1.37    0.27    0.39
  WS02003072WS02003073 CONDUIT    554.60     0  03:04      1.44    1.20    0.37
  WS02004401WS02004402 CONDUIT   1248.69     0  00:01      2.52    1.50    0.89
  WS02004402WS02004403 CONDUIT    929.44     0  00:01      2.21    1.34    0.91
  WS02004403WS02004404 CONDUIT    877.02     0  00:01      2.01    0.63    0.96
  WS02004404WS02004405 CONDUIT    827.31     0  00:01      2.30    8.11    0.98
  WS02004405WS02004406 CONDUIT    768.45     0  00:02      2.19    1.52    0.96
  WS02004406WS02004407 CONDUIT    541.45     0  03:00      1.04    0.24    0.63
  WS02004407WS02004409 CONDUIT    540.87     0  03:00      2.06    0.19    0.48
  WS02004409WS02004410 CONDUIT    540.51     0  03:01      1.39    0.70    0.68
  WS02004410WS02004411 CONDUIT    539.97     0  03:01      1.32    0.74    0.69
  WS02004411WS02004412 CONDUIT    540.01     0  03:01      1.30    0.77    0.70
  WS02004412WS02004413 CONDUIT    539.61     0  03:02      1.25    0.36    0.78
  WS02004413WS02003067 CONDUIT    539.03     0  03:02      1.11    0.23    0.59
  WS02006109WS02006110 CONDUIT   1446.81     0  00:00      2.88    2.78    1.00
  WS02006110WS02006113 CONDUIT    574.16     0  02:14      1.39    0.52    1.00
  WS02006111WS02006112 CONDUIT   2307.30     0  00:00      9.18    1.10    1.00
  WS02006112WS02006115 CONDUIT    953.54     0  00:00      1.24    0.56    1.00
  WS02006113WS02006111 CONDUIT   1180.41     0  00:00      2.47    1.41    1.00
  WS02006115WS02006116 CONDUIT   1264.47     0  00:00      1.74    1.62    1.00
  WS02006116WS02004401 CONDUIT   1786.04     0  00:00      2.94    2.46    0.87
  WS02006228WS02006109 CONDUIT    869.18     0  00:00      1.91    3.80    1.00
  WS02006229WS02006228 CONDUIT    560.62     0  02:46      1.12    1.86    1.00
  WS02006230WS02006229 CONDUIT    696.39     0  00:00      1.89   15.50    1.00
  WS02006231WS02006230 CONDUIT    576.65     0  01:45      1.91    8.75    1.00
  WS02006232WS02006231 CONDUIT    584.00     0  01:45      1.80    1.22    1.00
  WS02006234WS02006232 CONDUIT    582.80     0  01:45      1.64    1.18    1.00
  WS02006235WS02006234 CONDUIT    576.32     0  01:45      1.50    6.08    1.00
  WS02006238WS02006235 CONDUIT    424.51     0  02:00      1.50    0.95    1.00
  WS02006239WS02006238 CONDUIT    426.01     0  02:00      1.23    1.36    1.00
  WS02006240WS02006239 CONDUIT    424.78     0  02:00      1.33    1.34    1.00
  WS02006242WS02006240 CONDUIT    422.87     0  03:51      1.18    1.68    1.00
  WS02006243WS02006242 CONDUIT    424.04     0  03:51      1.42    0.91    1.00
  WS02006245WS02006243 CONDUIT    424.48     0  03:51      1.44    1.26    1.00
  WS02006247WS02006245 CONDUIT    425.55     0  03:51      1.40    3.37    1.00
  WS02006248WS02006247 CONDUIT    425.51     0  03:51      1.43    0.93    1.00
  WS02006249WS02006248 CONDUIT    425.04     0  03:51      1.38    2.33    1.00
  WS02006251WS02006249 CONDUIT    455.87     0  01:10      1.99    1.31    1.00
  WS02006252WS02006251 CONDUIT    413.81     0  01:34     16.68    1.52    1.00
  WS02006256WS02006235 CONDUIT    288.61     0  00:05      4.21    3.05    1.00
  WSF200WS02003060     CONDUIT    539.76     0  03:02      2.06    0.12    0.28
  YS02001580YS02001583 CONDUIT     77.13     0  01:16      0.55    0.30    1.00
  YS02001583YS02001586 CONDUIT    118.99     0  01:16      0.51    0.18    1.00
  YS02001586YS02001590 CONDUIT    319.34     0  01:34      1.26    0.56    1.00
  YS02001590YS02001593 CONDUIT    319.01     0  01:34      1.13    2.00    1.00
  YS02001593YS02001596 CONDUIT    317.93     0  01:39      1.68    0.50    1.00
  YS02001596YS02001600 CONDUIT    317.97     0  01:30      1.23    0.62    1.00
  YS02001600YS02001601 CONDUIT    318.02     0  01:44      1.12    0.55    1.00
  YS02001601YS02001602 CONDUIT    536.78     0  01:15      1.90    1.94    1.00
  YS02001602YS02001605 CONDUIT    535.92     0  01:15      1.90   11.34    1.00
  YS02001605YS02001607 CONDUIT    535.27     0  01:15      1.89    2.94    1.00
  YS02001607YS02001610 CONDUIT    541.28     0  01:16      0.75    0.51    1.00
  YS02001610YS02001613 CONDUIT    545.33     0  01:16      0.71    0.63    1.00
  YS02001613YS02001616 CONDUIT    551.73     0  01:16      0.75    0.47    1.00
  YS02001616YS02001619 CONDUIT    537.77     0  01:16      0.81    0.93    1.00
  YS02001619YS02001622 CONDUIT    909.25     0  01:23      1.69    1.34    1.00
  YS02001622YS02001625 CONDUIT    920.99     0  01:16      1.17    0.49    1.00
  YS02001625YS02001629 CONDUIT    921.36     0  01:16      1.18    0.44    1.00
  YS02001629YS02163301 CONDUIT    911.15     0  01:23      1.16    1.12    1.00
  YS02001633YS02163601 CONDUIT   1294.22     0  01:23      1.65    1.36    1.00
  YS02001641YS02001644 CONDUIT   1294.12     0  01:23      1.65    4.18    1.00
  YS02001644YS02001647 CONDUIT   1634.30     0  01:24      2.13    0.96    1.00
  YS02001647YS02001649 CONDUIT   1648.45     0  01:23      2.33    0.87    1.00
  YS02001649YS02001757 CONDUIT   1926.72     0  01:23      2.58    1.17    1.00
  YS02001652YS02001649 CONDUIT    383.21     0  01:46      1.24    0.19    1.00
  YS02001655YS02001652 CONDUIT    382.46     0  01:44      1.71    0.19    1.00
  YS02001658YS02001655 CONDUIT    489.42     0  01:33      1.90    0.21    1.00
  YS02001661YS02001658 CONDUIT    673.48     0  02:14      2.14    0.26    0.66
  YS02001664YS02001661 CONDUIT    319.06     0  01:27      1.95    0.10    0.41
  YS02001745YS02001748 CONDUIT    341.38     0  02:12      1.97    0.13    0.51
  YS02001748YS02001751 CONDUIT    255.89     0  01:29      1.62    0.13    0.91
  YS02001751YS02001754 CONDUIT    279.77     0  01:28      1.59    0.13    1.00
  YS02001754YS02001757 CONDUIT    271.96     0  01:23      0.99    0.11    1.00
  YS02001757CaochengTiaoxuchi CONDUIT   2650.36     0  01:29      3.77    1.15    1.00
  YS02001759YS02001757 CONDUIT    701.62     0  01:27      1.29    0.50    1.00
  YS02001762YS02001759 CONDUIT    426.46     0  01:27      0.72    0.49    1.00
  YS02001765YS02001762 CONDUIT    426.40     0  01:27      0.84    0.40    1.00
  YS02001767YS02001765 CONDUIT    433.58     0  01:26      0.94    0.55    1.00
  YS02001770YS02001767 CONDUIT    429.41     0  01:24      0.90    1.70    1.00
  YS02001774YS02001770 CONDUIT     93.61     0  01:25      0.67    0.06    1.00
  YS02001779YS02001774 CONDUIT     71.97     0  01:25      0.17    0.04    1.00
  YS02001783YS02001784 CONDUIT   1141.69     0  01:26      2.27    1.57    1.00
  YS02001784YS02001785 CONDUIT   1141.60     0  01:26      2.27    2.66    1.00
  YS02001786YS02001788 CONDUIT   1141.60     0  01:26      2.45    2.20    0.88
  YS02001788YS02001790 CONDUIT   1152.29     0  01:29      2.70    0.85    0.83
  YS02001790YS02001791 CONDUIT   1267.03     0  01:32      3.40    1.38    0.70
  YS02001791YS02001793 CONDUIT   1218.04     0  01:27      6.75    0.52    0.43
  YS02001793JiankangQianchi CONDUIT   1243.12     0  01:27      2.49    0.10    0.64
  YS02001882YS02001884 CONDUIT     80.35     0  01:14      0.40    0.09    1.00
  YS02001884YS02001887 CONDUIT    137.51     0  01:13      0.36    0.18    1.00
  YS02001887YS02001890 CONDUIT    319.79     0  01:25      0.46    0.55    1.00
  YS02001890YS02001895 CONDUIT    316.68     0  01:23      0.45    0.15    1.00
  YS02001895YS02001898 CONDUIT    315.71     0  01:23      0.75    0.55    1.00
  YS02001898YS02001901 CONDUIT    320.89     0  01:23      0.72    0.21    1.00
  YS02001901YS02001904 CONDUIT    324.47     0  01:23      0.41    0.50    1.00
  YS02001904YS02001907 CONDUIT    330.24     0  01:23      0.42    0.12    1.00
  YS02001907YS02006553 CONDUIT    778.09     0  01:34      0.86    0.92    1.00
  YS02001910YS02001907 CONDUIT    666.12     0  01:27      0.85    0.38    1.00
  YS02001915YS02001910 CONDUIT    666.28     0  01:27      1.23    0.33    1.00
  YS02001918YS02001915 CONDUIT    280.09     0  01:27      0.44    0.15    1.00
  YS02001920YS02001918 CONDUIT    279.35     0  01:27      0.70    0.27    1.00
  YS02001923YS02001920 CONDUIT    278.59     0  01:27      0.80    0.13    1.00
  YS02001926YS02001923 CONDUIT    277.28     0  01:26      0.92    0.40    0.92
  YS02001929YS02001926 CONDUIT    240.34     0  01:26      1.03    0.11    0.82
  YS02006553YS02006556 CONDUIT    780.72     0  01:34      0.99    0.67    1.00
  YS02006556YS02006558 CONDUIT    777.18     0  01:45      0.99    0.61    1.00
  YS02006558YS02006561 CONDUIT   1141.72     0  01:26      4.04    2.52    1.00
  YS02006561YS02001783 CONDUIT   1141.62     0  01:26      2.27    0.59    1.00
  YS02163301YS02001633 CONDUIT    910.85     0  01:23      1.16    0.86    1.00
  YS02163601YS02164001 CONDUIT   1294.31     0  01:23      1.65    1.15    1.00
  YS02164001YS02001641 CONDUIT   1295.61     0  01:23      1.65    1.77    1.00
  CC-R1                PUMP       683.00     0  00:05              1.00
  CC-R2                PUMP       683.00     0  00:05              1.00
  CC-S1                PUMP       200.00     0  01:10              1.00
  CC-S2                PUMP       200.00     0  01:10              1.00
  JK-R1                PUMP      1000.00     0  00:05              1.00
  JK-R2                PUMP      1000.00     0  00:05              1.00
  JK-S                 PUMP       300.00     0  00:05              1.00
  
  
  ***************************
  Flow Classification Summary
  ***************************
  
  -------------------------------------------------------------------------------------
                      Adjusted    ---------- Fraction of Time in Flow Class ---------- 
                       /Actual         Up    Down  Sub   Sup   Up    Down  Norm  Inlet 
  Conduit               Length    Dry  Dry   Dry   Crit  Crit  Crit  Crit  Ltd   Ctrl  
  -------------------------------------------------------------------------------------
  1                       1.00   0.00  0.00  0.00  0.00  1.00  0.00  0.00  0.49  0.00
  WS02003060WS02003069    1.00   0.00  0.00  0.00  0.98  0.02  0.00  0.00  0.66  0.00
  WS02003066WSF200        1.00   0.01  0.00  0.00  0.00  0.99  0.00  0.00  0.81  0.00
  WS02003067WS02003066    1.00   0.01  0.00  0.00  0.99  0.00  0.00  0.00  0.00  0.00
  WS02003069WS02003072    1.00   0.00  0.00  0.00  1.00  0.00  0.00  0.00  0.66  0.00
  WS02003072WS02003073    1.00   0.00  0.00  0.00  0.00  0.00  0.00  1.00  0.00  0.00
  WS02004401WS02004402    1.00   0.00  0.00  0.00  1.00  0.00  0.00  0.00  0.00  0.00
  WS02004402WS02004403    1.00   0.00  0.00  0.00  1.00  0.00  0.00  0.00  0.00  0.00
  WS02004403WS02004404    1.00   0.00  0.00  0.00  1.00  0.00  0.00  0.00  0.00  0.00
  WS02004404WS02004405    1.00   0.00  0.00  0.00  1.00  0.00  0.00  0.00  0.01  0.00
  WS02004405WS02004406    1.00   0.00  0.00  0.00  1.00  0.00  0.00  0.00  0.00  0.00
  WS02004406WS02004407    1.00   0.00  0.00  0.00  1.00  0.00  0.00  0.00  0.00  0.00
  WS02004407WS02004409    1.00   0.00  0.00  0.00  0.99  0.01  0.00  0.00  0.99  0.00
  WS02004409WS02004410    1.00   0.00  0.00  0.00  1.00  0.00  0.00  0.00  0.00  0.00
  WS02004410WS02004411    1.00   0.00  0.00  0.00  1.00  0.00  0.00  0.00  0.00  0.00
  WS02004411WS02004412    1.00   0.00  0.00  0.00  0.99  0.00  0.00  0.00  0.00  0.00
  WS02004412WS02004413    1.00   0.00  0.00  0.00  0.99  0.00  0.00  0.00  0.00  0.00
  WS02004413WS02003067    1.00   0.01  0.00  0.00  0.00  0.00  0.99  0.00  0.00  0.00
  WS02006109WS02006110    1.00   0.00  0.00  0.00  1.00  0.00  0.00  0.00  0.00  0.00
  WS02006110WS02006113    1.00   0.00  0.00  0.00  1.00  0.00  0.00  0.00  0.00  0.00
  WS02006111WS02006112    1.00   0.00  0.00  0.00  1.00  0.00  0.00  0.00  1.00  0.00
  WS02006112WS02006115    1.00   0.00  0.00  0.00  1.00  0.00  0.00  0.00  0.00  0.00
  WS02006113WS02006111    1.00   0.00  0.00  0.00  0.00  1.00  0.00  0.00  0.11  0.00
  WS02006115WS02006116    1.00   0.00  0.00  0.00  1.00  0.00  0.00  0.00  0.00  0.00
  WS02006116WS02004401    1.00   0.00  0.00  0.00  1.00  0.00  0.00  0.00  0.00  0.00
  WS02006228WS02006109    1.00   0.00  0.00  0.00  1.00  0.00  0.00  0.00  0.00  0.00
  WS02006229WS02006228    1.00   0.00  0.00  0.00  1.00  0.00  0.00  0.00  0.00  0.00
  WS02006230WS02006229    1.00   0.00  0.00  0.00  1.00  0.00  0.00  0.00  0.04  0.00
  WS02006231WS02006230    1.00   0.00  0.00  0.00  0.56  0.00  0.43  0.00  0.00  0.00
  WS02006232WS02006231    1.00   0.00  0.00  0.00  0.99  0.00  0.01  0.00  0.00  0.00
  WS02006234WS02006232    1.00   0.00  0.00  0.00  1.00  0.00  0.00  0.00  0.10  0.00
  WS02006235WS02006234    1.00   0.00  0.00  0.00  0.88  0.00  0.11  0.00  0.00  0.00
  WS02006238WS02006235    1.00   0.00  0.00  0.00  0.99  0.00  0.00  0.00  0.00  0.00
  WS02006239WS02006238    1.00   0.00  0.00  0.00  0.99  0.00  0.00  0.00  0.23  0.00
  WS02006240WS02006239    1.00   0.01  0.00  0.00  0.78  0.00  0.00  0.21  0.03  0.00
  WS02006242WS02006240    1.00   0.01  0.00  0.00  0.99  0.00  0.01  0.00  0.00  0.00
  WS02006243WS02006242    1.00   0.01  0.06  0.00  0.92  0.00  0.00  0.00  0.46  0.00
  WS02006245WS02006243    1.00   0.07  0.00  0.00  0.83  0.00  0.00  0.09  0.00  0.00
  WS02006247WS02006245    1.00   0.07  0.00  0.00  0.91  0.00  0.00  0.01  0.00  0.00
  WS02006248WS02006247    1.00   0.07  0.00  0.00  0.92  0.00  0.00  0.01  0.39  0.00
  WS02006249WS02006248    1.00   0.07  0.00  0.00  0.68  0.00  0.25  0.00  0.00  0.00
  WS02006251WS02006249    1.00   0.07  0.00  0.00  0.92  0.01  0.00  0.00  0.43  0.00
  WS02006252WS02006251    1.00   0.07  0.16  0.00  0.33  0.00  0.44  0.00  0.00  0.00
  WS02006256WS02006235    1.00   0.00  0.00  0.00  0.98  0.02  0.00  0.00  0.01  0.00
  WSF200WS02003060        1.00   0.00  0.01  0.00  0.28  0.71  0.00  0.00  0.62  0.00
  YS02001580YS02001583    1.00   0.08  0.40  0.00  0.52  0.00  0.00  0.00  0.61  0.00
  YS02001583YS02001586    1.00   0.19  0.17  0.00  0.64  0.00  0.00  0.00  0.61  0.00
  YS02001586YS02001590    1.00   0.06  0.00  0.00  0.73  0.02  0.00  0.19  0.27  0.00
  YS02001590YS02001593    1.00   0.06  0.00  0.00  0.43  0.00  0.51  0.00  0.00  0.00
  YS02001593YS02001596    1.00   0.06  0.00  0.00  0.44  0.01  0.00  0.49  0.01  0.00
  YS02001596YS02001600    1.00   0.06  0.00  0.00  0.47  0.01  0.00  0.46  0.03  0.00
  YS02001600YS02001601    1.00   0.06  0.00  0.00  0.94  0.00  0.00  0.00  0.54  0.00
  YS02001601YS02001602    1.00   0.06  0.00  0.00  0.94  0.00  0.00  0.00  0.00  0.00
  YS02001602YS02001605    1.00   0.06  0.00  0.00  0.94  0.00  0.00  0.00  0.00  0.00
  YS02001605YS02001607    1.00   0.06  0.00  0.00  0.94  0.00  0.00  0.00  0.00  0.00
  YS02001607YS02001610    1.00   0.06  0.00  0.00  0.94  0.00  0.00  0.00  0.00  0.00
  YS02001610YS02001613    1.00   0.06  0.00  0.00  0.94  0.00  0.00  0.00  0.00  0.00
  YS02001613YS02001616    1.00   0.06  0.00  0.00  0.94  0.00  0.00  0.00  0.00  0.00
  YS02001616YS02001619    1.00   0.06  0.00  0.00  0.94  0.00  0.00  0.00  0.00  0.00
  YS02001619YS02001622    1.00   0.06  0.00  0.00  0.93  0.00  0.00  0.00  0.26  0.00
  YS02001622YS02001625    1.00   0.06  0.00  0.00  0.93  0.00  0.00  0.00  0.01  0.00
  YS02001625YS02001629    1.00   0.06  0.01  0.00  0.46  0.00  0.47  0.00  0.00  0.00
  YS02001629YS02163301    1.00   0.06  0.00  0.00  0.93  0.00  0.00  0.00  0.00  0.00
  YS02001633YS02163601    1.00   0.06  0.00  0.00  0.94  0.00  0.00  0.00  0.00  0.00
  YS02001641YS02001644    1.00   0.06  0.00  0.00  0.94  0.00  0.00  0.00  0.00  0.00
  YS02001644YS02001647    1.00   0.06  0.00  0.00  0.93  0.00  0.00  0.00  0.00  0.00
  YS02001647YS02001649    1.00   0.07  0.00  0.00  0.66  0.27  0.00  0.00  0.54  0.00
  YS02001649YS02001757    1.00   0.00  0.07  0.00  0.66  0.28  0.00  0.00  0.12  0.00
  YS02001652YS02001649    1.00   0.06  0.00  0.00  0.93  0.01  0.00  0.00  0.55  0.00
  YS02001655YS02001652    1.00   0.06  0.00  0.00  0.49  0.00  0.00  0.44  0.02  0.00
  YS02001658YS02001655    1.00   0.06  0.00  0.00  0.81  0.13  0.00  0.00  0.60  0.00
  YS02001661YS02001658    1.00   0.06  0.00  0.00  0.60  0.34  0.00  0.00  0.64  0.00
  YS02001664YS02001661    1.00   0.06  0.00  0.00  0.79  0.14  0.00  0.00  0.87  0.00
  YS02001745YS02001748    1.00   0.06  0.00  0.00  0.39  0.01  0.00  0.54  0.08  0.00
  YS02001748YS02001751    1.00   0.06  0.00  0.00  0.86  0.07  0.00  0.00  0.60  0.00
  YS02001751YS02001754    1.00   0.06  0.00  0.00  0.48  0.00  0.00  0.45  0.02  0.00
  YS02001754YS02001757    1.00   0.00  0.06  0.00  0.93  0.00  0.00  0.00  0.57  0.00
  YS02001757CaochengTiaoxuchi    1.00   0.00  0.00  0.00  0.96  0.04  0.00  0.00  0.67  0.00
  YS02001759YS02001757    1.00   0.00  0.06  0.00  0.93  0.00  0.00  0.00  0.52  0.00
  YS02001762YS02001759    1.00   0.06  0.00  0.00  0.94  0.00  0.00  0.00  0.00  0.00
  YS02001765YS02001762    1.00   0.06  0.00  0.00  0.94  0.00  0.00  0.00  0.53  0.00
  YS02001767YS02001765    1.00   0.06  0.00  0.00  0.94  0.00  0.00  0.00  0.01  0.00
  YS02001770YS02001767    1.00   0.06  0.00  0.00  0.94  0.00  0.00  0.00  0.00  0.00
  YS02001774YS02001770    1.00   0.06  0.00  0.00  0.82  0.00  0.11  0.00  0.00  0.00
  YS02001779YS02001774    1.00   0.06  0.28  0.00  0.65  0.00  0.00  0.00  0.56  0.00
  YS02001783YS02001784    1.00   0.07  0.00  0.00  0.93  0.00  0.00  0.00  0.53  0.00
  YS02001784YS02001785    1.00   0.07  0.00  0.00  0.93  0.00  0.00  0.00  0.35  0.00
  YS02001786YS02001788    1.00   0.07  0.00  0.00  0.58  0.35  0.00  0.00  0.00  0.00
  YS02001788YS02001790    1.00   0.07  0.00  0.00  0.17  0.76  0.00  0.00  0.59  0.00
  YS02001790YS02001791    1.00   0.07  0.00  0.00  0.00  0.93  0.00  0.00  0.15  0.00
  YS02001791YS02001793    1.00   0.07  0.00  0.00  0.00  0.93  0.00  0.00  0.01  0.00
  YS02001793JiankangQianchi    1.00   0.00  0.07  0.00  0.87  0.06  0.00  0.00  0.83  0.00
  YS02001882YS02001884    1.00   0.07  0.00  0.00  0.93  0.00  0.00  0.00  0.00  0.00
  YS02001884YS02001887    1.00   0.06  0.00  0.00  0.94  0.00  0.00  0.00  0.00  0.00
  YS02001887YS02001890    1.00   0.06  0.00  0.00  0.93  0.00  0.00  0.00  0.00  0.00
  YS02001890YS02001895    1.00   0.06  0.00  0.00  0.93  0.00  0.00  0.00  0.00  0.00
  YS02001895YS02001898    1.00   0.07  0.00  0.00  0.93  0.00  0.00  0.00  0.00  0.00
  YS02001898YS02001901    1.00   0.07  0.00  0.00  0.93  0.00  0.00  0.00  0.00  0.00
  YS02001901YS02001904    1.00   0.07  0.00  0.00  0.93  0.00  0.00  0.00  0.00  0.00
  YS02001904YS02001907    1.00   0.06  0.01  0.00  0.93  0.00  0.00  0.00  0.00  0.00
  YS02001907YS02006553    1.00   0.06  0.00  0.00  0.93  0.00  0.00  0.00  0.00  0.00
  YS02001910YS02001907    1.00   0.06  0.00  0.00  0.93  0.00  0.00  0.00  0.00  0.00
  YS02001915YS02001910    1.00   0.06  0.00  0.00  0.93  0.01  0.00  0.00  0.00  0.00
  YS02001918YS02001915    1.00   0.06  0.01  0.00  0.93  0.00  0.00  0.00  0.62  0.00
  YS02001920YS02001918    1.00   0.07  0.00  0.00  0.93  0.00  0.00  0.00  0.00  0.00
  YS02001923YS02001920    1.00   0.06  0.00  0.00  0.93  0.00  0.00  0.00  0.71  0.00
  YS02001926YS02001923    1.00   0.06  0.00  0.00  0.14  0.00  0.79  0.00  0.00  0.00
  YS02001929YS02001926    1.00   0.06  0.00  0.00  0.93  0.00  0.00  0.00  0.80  0.00
  YS02006553YS02006556    1.00   0.06  0.00  0.00  0.94  0.00  0.00  0.00  0.00  0.00
  YS02006556YS02006558    1.00   0.06  0.00  0.00  0.94  0.00  0.00  0.00  0.00  0.00
  YS02006558YS02006561    1.00   0.07  0.00  0.00  0.11  0.82  0.00  0.00  0.12  0.00
  YS02006561YS02001783    1.00   0.07  0.00  0.00  0.33  0.60  0.00  0.00  0.61  0.00
  YS02163301YS02001633    1.00   0.06  0.00  0.00  0.94  0.00  0.00  0.00  0.00  0.00
  YS02163601YS02164001    1.00   0.06  0.00  0.00  0.93  0.00  0.00  0.00  0.00  0.00
  YS02164001YS02001641    1.00   0.06  0.00  0.00  0.93  0.00  0.00  0.00  0.00  0.00
  
  
  *************************
  Conduit Surcharge Summary
  *************************
  
  ----------------------------------------------------------------------------
                                                           Hours        Hours 
                         --------- Hours Full --------   Above Full   Capacity
  Conduit                Both Ends  Upstream  Dnstream   Normal Flow   Limited
  ----------------------------------------------------------------------------
  WS02003072WS02003073        0.01      0.01      0.01      1.92         0.01
  WS02004401WS02004402        0.01      0.01      0.01      0.01         0.01
  WS02004402WS02004403        0.01      0.01      0.01      0.02         0.01
  WS02004403WS02004404        0.01      0.01      0.02      0.01         0.01
  WS02004404WS02004405        0.01      0.02      0.01      3.14         0.01
  WS02004405WS02004406        0.01      0.01      0.01      1.12         0.01
  WS02006109WS02006110        1.23      1.23      2.66      1.40         0.01
  WS02006110WS02006113        0.01      0.01      2.65      0.01         0.01
  WS02006111WS02006112        0.01      0.01      2.80      0.01         0.01
  WS02006112WS02006115        0.01      0.01      1.46      0.01         0.01
  WS02006113WS02006111        0.01      0.01      0.01      0.01         0.01
  WS02006115WS02006116        0.01      0.01      0.01      0.01         0.01
  WS02006116WS02004401        0.01      0.01      0.01      0.02         0.01
  WS02006228WS02006109        2.63      2.66      2.64      2.86         2.63
  WS02006229WS02006228        2.63      2.64      2.63      2.74         2.62
  WS02006230WS02006229        2.67      2.72      2.68      3.29         2.67
  WS02006231WS02006230        1.25      1.25      1.49      3.05         0.01
  WS02006232WS02006231        1.43      1.43      2.67      1.52         0.01
  WS02006234WS02006232        2.59      2.59      2.67      1.50         1.48
  WS02006235WS02006234        1.81      1.82      2.60      2.99         0.02
  WS02006238WS02006235        2.61      2.61      2.67      0.01         0.01
  WS02006239WS02006238        2.64      2.66      2.64      2.61         2.29
  WS02006240WS02006239        2.62      2.64      2.62      2.62         2.14
  WS02006242WS02006240        2.64      2.64      2.67      2.74         0.01
  WS02006243WS02006242        2.64      2.64      2.65      0.01         0.05
  WS02006245WS02006243        2.62      2.62      2.64      1.33         1.52
  WS02006247WS02006245        2.61      2.62      2.61      2.93         2.59
  WS02006248WS02006247        2.60      2.60      2.61      0.01         0.05
  WS02006249WS02006248        2.59      2.59      2.60      2.93         0.01
  WS02006251WS02006249        2.59      2.59      2.60      2.68         2.49
  WS02006252WS02006251        2.73      2.73      2.75      2.73         0.01
  WS02006256WS02006235        2.98      3.02      5.99      1.72         0.01
  YS02001580YS02001583        1.15      1.15      1.68      0.01         0.01
  YS02001583YS02001586        1.18      1.18      1.80      0.01         0.01
  YS02001586YS02001590        1.81      1.81      1.86      0.01         0.01
  YS02001590YS02001593        1.86      1.86      1.88      1.85         0.01
  YS02001593YS02001596        1.87      1.87      1.94      0.01         0.01
  YS02001596YS02001600        1.97      1.97      2.01      0.01         0.01
  YS02001600YS02001601        2.04      2.04      2.19      0.01         0.01
  YS02001601YS02001602        2.13      2.13      2.21      2.02         0.01
  YS02001602YS02001605        2.11      2.11      2.13      2.72         0.01
  YS02001605YS02001607        2.09      2.11      2.09      2.14         2.07
  YS02001607YS02001610        1.84      1.84      1.86      0.01         0.01
  YS02001610YS02001613        1.84      1.84      1.86      0.01         0.01
  YS02001613YS02001616        1.81      1.81      1.84      0.01         0.01
  YS02001616YS02001619        1.80      1.80      1.81      0.01         0.01
  YS02001619YS02001622        1.80      1.80      1.80      1.82         1.50
  YS02001622YS02001625        1.80      1.80      1.93      0.01         0.01
  YS02001625YS02001629        1.76      1.76      1.93      0.01         0.01
  YS02001629YS02163301        1.93      1.93      1.94      0.18         0.45
  YS02001633YS02163601        1.95      1.95      1.98      1.63         1.34
  YS02001641YS02001644        1.90      1.93      1.90      2.23         1.89
  YS02001644YS02001647        1.66      1.66      1.90      0.01         0.01
  YS02001647YS02001649        1.66      1.66      1.77      0.01         0.01
  YS02001649YS02001757        1.76      1.77      1.83      0.38         0.42
  YS02001652YS02001649        1.61      1.61      1.77      0.01         0.01
  YS02001655YS02001652        0.54      0.54      1.59      0.01         0.01
  YS02001658YS02001655        0.01      0.01      0.54      0.01         0.01
  YS02001661YS02001658        0.01      0.01      0.01      0.01         0.01
  YS02001748YS02001751        0.01      0.01      0.01      0.01         0.01
  YS02001751YS02001754        0.01      0.01      1.43      0.01         0.01
  YS02001754YS02001757        1.52      1.52      1.83      0.01         0.01
  YS02001757CaochengTiaoxuchi        1.78      1.83      2.33      0.48         0.33
  YS02001759YS02001757        1.73      1.73      1.83      0.01         0.01
  YS02001762YS02001759        1.70      1.70      1.73      0.01         0.01
  YS02001765YS02001762        1.66      1.66      1.70      0.01         0.01
  YS02001767YS02001765        1.64      1.64      1.66      0.01         0.01
  YS02001770YS02001767        1.64      1.65      1.64      1.14         0.91
  YS02001774YS02001770        1.61      1.61      1.69      0.01         0.01
  YS02001779YS02001774        1.40      1.40      1.69      0.01         0.01
  YS02001783YS02001784        0.93      1.03      0.93      1.35         0.93
  YS02001784YS02001785        0.48      0.93      0.48      1.91         0.48
  YS02001786YS02001788        0.01      0.48      0.01      1.83         0.01
  YS02001790YS02001791        0.01      0.01      0.01      0.82         0.01
  YS02001793JiankangQianchi        0.01      0.01      5.27      0.01         0.01
  YS02001882YS02001884        0.66      0.66      0.72      0.01         0.01
  YS02001884YS02001887        0.87      0.87      0.99      0.01         0.01
  YS02001887YS02001890        1.04      1.04      1.06      0.01         0.01
  YS02001890YS02001895        0.62      0.62      1.10      0.01         0.01
  YS02001895YS02001898        0.61      0.61      0.62      0.01         0.01
  YS02001898YS02001901        0.63      0.63      0.87      0.01         0.01
  YS02001901YS02001904        0.79      0.79      0.87      0.01         0.01
  YS02001904YS02001907        0.79      0.79      1.82      0.01         0.01
  YS02001907YS02006553        1.91      1.91      1.94      0.01         0.01
  YS02001910YS02001907        1.10      1.10      1.81      0.01         0.01
  YS02001915YS02001910        0.66      0.66      1.10      0.01         0.01
  YS02001918YS02001915        0.45      0.45      0.66      0.01         0.01
  YS02001920YS02001918        0.45      0.45      0.48      0.01         0.01
  YS02001923YS02001920        0.34      0.34      0.48      0.01         0.01
  YS02006553YS02006556        1.29      1.29      1.82      0.01         0.01
  YS02006556YS02006558        1.59      1.59      1.83      0.01         0.01
  YS02006558YS02006561        0.52      1.26      0.52      1.88         0.52
  YS02006561YS02001783        0.38      0.38      1.03      0.01         0.01
  YS02163301YS02001633        1.94      1.94      1.96      0.01         0.01
  YS02163601YS02164001        1.93      1.93      1.98      0.22         0.01
  YS02164001YS02001641        1.93      1.93      1.93      1.90         1.81
  
  
  ***************
  Pumping Summary
  ***************
  
  ---------------------------------------------------------------------------------------------------------
                                                  Min       Avg       Max     Total     Power    % Time Off
                        Percent   Number of      Flow      Flow      Flow    Volume     Usage    Pump Curve
  Pump                 Utilized   Start-Ups       LPS       LPS       LPS  10^6 ltr     Kw-hr    Low   High
  ---------------------------------------------------------------------------------------------------------
  CC-R1                   35.26          16      0.00    683.00    683.00     6.935    129.98    0.0   23.3
  CC-R2                   29.79          20      0.00    683.00    683.00     5.860    111.29    0.0   16.5
  CC-S1                   36.01          10      0.00    200.00    200.00     2.074     11.06    0.0    0.0
  CC-S2                   35.83          17      0.00    200.00    200.00     2.064     11.00    0.0    0.0
  JK-R1                    9.14          14      0.00   1000.00   1000.00     2.631     25.89    0.0    0.0
  JK-R2                    7.49          14      0.00   1000.00   1000.00     2.158     18.97    0.0    0.0
  JK-S                    21.16          33      0.00    300.00    300.00     1.828     29.74    0.0    0.0
  

  Analysis begun on:  Thu Sep  7 18:05:15 2023
  Analysis ended on:  Thu Sep  7 18:05:26 2023
  Total elapsed time: 00:00:11