
  OWA STORM WATER MANAGEMENT MODEL - VERSION v5.1.14 (OWA 2022-07-31)
  --------------------------------------------------------------

  WARNING 04: minimum elevation drop used for Conduit WS02004404WS02004405
  WARNING 03: negative offset ignored for Link YS02001904YS02001907
  
  *********************************************************
  NOTE: The summary statistics displayed in this report are
  based on results found at every computational time step,  
  not just on results from each reporting time step.
  *********************************************************
  
  ****************
  Analysis Options
  ****************
  Flow Units ............... LPS
  Process Models:
    Rainfall/Runoff ........ YES
    RDII ................... NO
    Snowmelt ............... NO
    Groundwater ............ NO
    Flow Routing ........... YES
    Ponding Allowed ........ NO
    Water Quality .......... NO
  Infiltration Method ...... HORTON
  Flow Routing Method ...... DYNWAVE
  Surcharge Method ......... EXTRAN
  Starting Date ............ 08/28/2015 08:00:00
  Ending Date .............. 08/28/2015 16:00:00
  Antecedent Dry Days ...... 8.0
  Report Time Step ......... 00:01:00
  Wet Time Step ............ 00:01:00
  Dry Time Step ............ 00:01:00
  Routing Time Step ........ 30.00 sec
  Variable Time Step ....... YES
  Maximum Trials ........... 8
  Number of Threads ........ 1
  Head Tolerance ........... 0.001500 m
  
  
  **************************        Volume         Depth
  Runoff Quantity Continuity     hectare-m            mm
  **************************     ---------       -------
  Total Precipitation ......         1.748        52.691
  Evaporation Loss .........         0.000         0.000
  Infiltration Loss ........         0.095         2.849
  Surface Runoff ...........         1.621        48.864
  Final Storage ............         0.033         0.992
  Continuity Error (%) .....        -0.029
  
  
  **************************        Volume        Volume
  Flow Routing Continuity        hectare-m      10^6 ltr
  **************************     ---------     ---------
  Dry Weather Inflow .......         0.000         0.000
  Wet Weather Inflow .......         1.621        16.210
  Groundwater Inflow .......         0.000         0.000
  RDII Inflow ..............         0.000         0.000
  External Inflow ..........         0.083         0.834
  External Outflow .........         1.393        13.931
  Flooding Loss ............         0.411         4.106
  Evaporation Loss .........         0.000         0.000
  Exfiltration Loss ........         0.000         0.000
  Initial Stored Volume ....         0.243         2.431
  Final Stored Volume ......         0.178         1.781
  Continuity Error (%) .....        -1.766
  
  
  *************************
  Highest Continuity Errors
  *************************
  Node YS02001583 (-13.17%)
  Node YS02001884 (3.97%)
  Node WS02006110 (-1.45%)
  Node WS02006256 (-1.38%)
  Node WS02006111 (-1.11%)
  
  
  ***************************
  Time-Step Critical Elements
  ***************************
  Link WS02006252WS02006251 (44.86%)
  Link WS02004404WS02004405 (20.50%)
  Link WS02006238WS02006235 (12.15%)
  Link YS02001791YS02001793 (5.37%)
  Link WS02006235WS02006234 (4.38%)
  
  
  ********************************
  Highest Flow Instability Indexes
  ********************************
  Link WS02006113WS02006111 (39)
  Link WS02004404WS02004405 (17)
  Link WS02006111WS02006112 (15)
  Link WS02004403WS02004404 (15)
  Link WS02006256WS02006235 (14)
  
  
  *************************
  Routing Time Step Summary
  *************************
  Minimum Time Step           :     0.02 sec
  Average Time Step           :     2.30 sec
  Maximum Time Step           :    30.00 sec
  Percent in Steady State     :    -0.00
  Average Iterations per Step :     3.05
  Percent Not Converging      :    11.42
  
  
  ***************************
  Subcatchment Runoff Summary
  ***************************
  
  ------------------------------------------------------------------------------------------------------------------------------
                            Total      Total      Total      Total     Imperv       Perv      Total       Total     Peak  Runoff
                           Precip      Runon       Evap      Infil     Runoff     Runoff     Runoff      Runoff   Runoff   Coeff
  Subcatchment                 mm         mm         mm         mm         mm         mm         mm    10^6 ltr      LPS
  ------------------------------------------------------------------------------------------------------------------------------
  sub60                     52.69       0.00       0.00       1.73      45.17       4.59      49.76        0.65   480.61   0.944
  sub61                     52.69       0.00       0.00       2.51      42.60       6.45      49.06        0.90   662.57   0.931
  sub62                     52.69       0.00       0.00       1.16      47.19       3.06      50.25        1.38   923.03   0.954
  sub63                     52.69       0.00       0.00       4.60      36.44      10.68      47.13        1.07   717.15   0.894
  sub64                     52.69       0.00       0.00       2.33      43.58       5.58      49.16        1.18   731.41   0.933
  sub65                     52.69       0.00       0.00       2.02      44.59       4.84      49.43        1.36   813.03   0.938
  sub66                     52.69       0.00       0.00       5.66      36.34       9.62      45.96        2.14  1017.52   0.872
  sub67                     52.69       0.00       0.00       1.12      47.23       3.10      50.33        0.94   739.71   0.955
  sub68                     52.69       0.00       0.00       2.08      44.13       5.30      49.43        1.36   945.28   0.938
  sub69                     52.69       0.00       0.00       1.81      44.68       6.09      50.77        1.88  1090.11   0.964
  sub70                     52.69       0.00       0.00       6.03      34.62      11.88      46.50        1.34   571.81   0.883
  sub71                     52.69       0.00       0.00       1.18      47.15       3.03      50.19        1.31   793.07   0.952
  sub72                     52.69       0.00       0.00       1.05      47.61       2.64      50.24        0.69   375.88   0.954
  
  
  ******************
  Node Depth Summary
  ******************
  
  ---------------------------------------------------------------------------------
                                 Average  Maximum  Maximum  Time of Max    Reported
                                   Depth    Depth      HGL   Occurrence   Max Depth
  Node                 Type       Meters   Meters   Meters  days hr:min      Meters
  ---------------------------------------------------------------------------------
  WS02003060           JUNCTION     0.21     0.38     5.32     0  02:14        0.38
  WS02003066           JUNCTION     0.18     0.30     5.85     0  02:13        0.30
  WS02003067           JUNCTION     0.47     0.70     6.02     0  02:13        0.70
  WS02003069           JUNCTION     0.23     0.43     5.02     0  02:15        0.43
  WS02003072           JUNCTION     0.29     0.50     4.87     0  02:15        0.50
  WS02003073           JUNCTION     0.16     0.30     4.36     0  02:16        0.30
  WS02004401           JUNCTION     0.56     0.88     6.88     0  02:12        0.88
  WS02004402           JUNCTION     0.60     0.91     6.87     0  02:12        0.90
  WS02004403           JUNCTION     0.62     0.92     6.85     0  02:09        0.92
  WS02004404           JUNCTION     0.70     1.06     6.91     0  02:12        1.03
  WS02004405           JUNCTION     0.69     0.97     6.82     0  02:11        0.97
  WS02004406           JUNCTION     0.71     0.96     6.79     0  02:12        0.96
  WS02004407           JUNCTION     0.16     0.30     6.61     0  02:12        0.30
  WS02004409           JUNCTION     0.35     0.67     6.44     0  02:12        0.67
  WS02004410           JUNCTION     0.38     0.68     6.40     0  02:13        0.68
  WS02004411           JUNCTION     0.40     0.69     6.37     0  02:13        0.69
  WS02004412           JUNCTION     0.43     0.70     6.34     0  02:13        0.70
  WS02004413           JUNCTION     0.59     0.86     6.33     0  02:13        0.86
  WS02006109           JUNCTION     0.60     1.69     8.31     0  02:23        0.99
  WS02006110           JUNCTION     0.61     1.86     8.45     0  02:23        0.93
  WS02006111           JUNCTION     0.16     1.67     8.37     0  00:00        0.56
  WS02006112           JUNCTION     0.71     2.68     8.56     0  00:00        1.29
  WS02006113           JUNCTION     0.24     1.50     8.40     0  00:00        0.46
  WS02006115           JUNCTION     0.44     1.69     7.83     0  00:00        0.86
  WS02006116           JUNCTION     0.53     1.11     7.15     0  00:00        0.86
  WS02006228           JUNCTION     0.59     1.64     8.29     0  00:00        1.03
  WS02006229           JUNCTION     0.56     1.31     8.00     0  00:00        1.04
  WS02006230           JUNCTION     0.54     1.42     8.16     0  03:06        1.17
  WS02006231           JUNCTION     0.37     1.17     8.29     0  02:23        0.93
  WS02006232           JUNCTION     0.49     1.45     8.49     0  03:06        1.37
  WS02006234           JUNCTION     0.41     1.76     8.92     0  03:06        1.76
  WS02006235           JUNCTION     0.45     2.00     9.16     0  03:06        2.00
  WS02006238           JUNCTION     0.47     2.15     9.29     0  03:06        2.15
  WS02006239           JUNCTION     0.44     2.03     9.24     0  03:06        2.03
  WS02006240           JUNCTION     0.41     2.10     9.39     0  03:06        2.10
  WS02006242           JUNCTION     0.47     1.55     8.82     0  01:53        1.55
  WS02006243           JUNCTION     0.38     1.48     8.90     0  01:53        1.48
  WS02006245           JUNCTION     0.39     1.56     9.04     0  01:53        1.56
  WS02006247           JUNCTION     0.41     1.47     8.97     0  01:53        1.47
  WS02006248           JUNCTION     0.38     1.10     8.69     0  01:52        1.10
  WS02006249           JUNCTION     0.41     1.09     8.69     0  01:52        1.09
  WS02006251           JUNCTION     0.41     1.40     9.07     0  01:53        1.14
  WS02006252           JUNCTION     0.31     1.50     9.74     0  01:51        0.90
  WS02006256           JUNCTION     0.89     2.35     9.28     0  00:05        2.35
  WSF200               JUNCTION     0.15     0.29     5.52     0  02:13        0.29
  YS02001580           JUNCTION     0.09     1.05     9.59     0  01:46        0.77
  YS02001583           JUNCTION     0.12     1.14     9.64     0  01:47        1.14
  YS02001586           JUNCTION     0.19     1.13     9.30     0  01:46        1.13
  YS02001590           JUNCTION     0.28     1.40     9.26     0  01:45        1.40
  YS02001593           JUNCTION     0.22     1.46     9.32     0  01:47        1.46
  YS02001596           JUNCTION     0.29     1.80     9.22     0  01:47        1.80
  YS02001600           JUNCTION     0.35     1.87     9.00     0  01:45        1.87
  YS02001601           JUNCTION     0.52     2.06     8.90     0  01:45        2.06
  YS02001602           JUNCTION     0.44     1.87     8.77     0  01:46        1.87
  YS02001605           JUNCTION     0.41     1.78     8.68     0  01:46        1.78
  YS02001607           JUNCTION     0.40     1.68     8.53     0  01:46        1.68
  YS02001610           JUNCTION     0.43     1.68     8.48     0  01:46        1.68
  YS02001613           JUNCTION     0.40     1.70     8.54     0  01:46        1.67
  YS02001616           JUNCTION     0.34     1.61     8.52     0  01:46        1.61
  YS02001619           JUNCTION     0.32     1.61     8.54     0  01:46        1.61
  YS02001622           JUNCTION     0.31     1.62     8.52     0  01:46        1.62
  YS02001625           JUNCTION     0.53     1.78     8.38     0  01:47        1.78
  YS02001629           JUNCTION     0.42     1.85     8.40     0  01:47        1.85
  YS02001633           JUNCTION     0.48     2.08     8.53     0  01:48        1.99
  YS02001641           JUNCTION     0.46     2.00     8.43     0  01:49        1.94
  YS02001644           JUNCTION     0.46     1.92     8.35     0  01:48        1.92
  YS02001647           JUNCTION     0.27     1.81     8.42     0  01:49        1.79
  YS02001649           JUNCTION     0.31     2.05     8.44     0  01:49        2.05
  YS02001652           JUNCTION     0.21     2.16     8.76     0  01:48        1.85
  YS02001655           JUNCTION     0.16     2.20     9.05     0  01:49        1.59
  YS02001658           JUNCTION     0.11     2.30     9.44     0  01:49        1.30
  YS02001661           JUNCTION     0.13     2.46     9.86     0  01:50        1.07
  YS02001664           JUNCTION     0.05     0.72     8.64     0  01:50        0.51
  YS02001745           JUNCTION     0.06     2.35     9.87     0  01:49        1.19
  YS02001748           JUNCTION     0.10     2.27     9.35     0  01:49        1.45
  YS02001751           JUNCTION     0.13     2.20     9.08     0  01:49        1.58
  YS02001754           JUNCTION     0.18     2.20     8.81     0  01:49        1.81
  YS02001757           JUNCTION     0.31     2.21     8.47     0  01:49        2.09
  YS02001759           JUNCTION     0.26     2.20     8.57     0  01:49        2.10
  YS02001762           JUNCTION     0.25     2.15     8.55     0  01:49        2.07
  YS02001765           JUNCTION     0.24     2.10     8.55     0  01:49        2.02
  YS02001767           JUNCTION     0.24     2.03     8.52     0  01:48        1.97
  YS02001770           JUNCTION     0.25     1.95     8.44     0  01:48        1.95
  YS02001774           JUNCTION     0.31     2.01     8.44     0  01:49        1.99
  YS02001779           JUNCTION     0.17     1.68     8.37     0  01:48        1.68
  YS02001783           JUNCTION     0.22     1.32     7.46     0  01:48        1.24
  YS02001784           JUNCTION     0.22     1.23     7.30     0  01:48        1.22
  YS02001786           JUNCTION     0.19     1.56     7.59     0  01:48        1.56
  YS02001788           JUNCTION     0.13     0.62     6.60     0  01:48        0.62
  YS02001790           JUNCTION     0.16     0.72     6.37     0  01:53        0.72
  YS02001791           JUNCTION     0.10     0.44     5.91     0  01:50        0.43
  YS02001793           JUNCTION     0.05     0.28     5.12     0  01:51        0.27
  YS02001882           JUNCTION     0.28     1.83     8.55     0  01:47        1.63
  YS02001884           JUNCTION     0.35     1.93     8.55     0  01:47        1.74
  YS02001887           JUNCTION     0.41     1.93     8.47     0  01:47        1.81
  YS02001890           JUNCTION     0.43     1.81     8.32     0  01:47        1.81
  YS02001895           JUNCTION     0.25     1.75     8.50     0  01:47        1.60
  YS02001898           JUNCTION     0.26     1.77     8.51     0  01:47        1.57
  YS02001901           JUNCTION     0.35     1.87     8.48     0  01:47        1.70
  YS02001904           JUNCTION     0.33     1.85     8.48     0  01:47        1.71
  YS02001907           JUNCTION     0.58     1.96     8.25     0  01:47        1.96
  YS02001910           JUNCTION     0.43     2.10     8.61     0  01:48        1.94
  YS02001915           JUNCTION     0.28     2.00     8.72     0  01:47        1.88
  YS02001918           JUNCTION     0.15     1.81     8.88     0  01:48        1.81
  YS02001920           JUNCTION     0.21     2.14     9.15     0  01:48        2.08
  YS02001923           JUNCTION     0.12     2.03     9.29     0  01:48        2.03
  YS02001926           JUNCTION     0.15     1.90     9.35     0  01:48        1.90
  YS02001929           JUNCTION     0.09     1.78     9.47     0  01:48        1.66
  YS02006553           JUNCTION     0.59     2.00     8.29     0  01:48        1.98
  YS02006556           JUNCTION     0.56     2.02     8.33     0  01:48        1.95
  YS02006558           JUNCTION     0.60     2.07     8.34     0  01:48        1.99
  YS02006561           JUNCTION     0.14     1.04     7.70     0  01:48        0.90
  YS02163301           JUNCTION     0.44     1.96     8.47     0  01:48        1.91
  YS02163601           JUNCTION     0.51     2.08     8.48     0  01:48        2.02
  YS02164001           JUNCTION     0.45     2.02     8.48     0  01:48        1.93
  CC-1                 OUTFALL      0.00     0.00     0.00     0  00:00        0.00
  CC-2                 OUTFALL      0.00     0.00     0.00     0  00:00        0.00
  JK-1                 OUTFALL      0.00     0.00     0.00     0  00:00        0.00
  JK-2                 OUTFALL      0.00     0.00     0.00     0  00:00        0.00
  WSC                  OUTFALL      0.16     0.30     0.97     0  02:17        0.30
  CC-storage           STORAGE      0.74     1.50     7.00     0  02:18        1.50
  JK-storage           STORAGE      1.48     4.21     5.01     0  01:51        4.21
  
  
  *******************
  Node Inflow Summary
  *******************
  
  -------------------------------------------------------------------------------------------------
                                  Maximum  Maximum                  Lateral       Total        Flow
                                  Lateral    Total  Time of Max      Inflow      Inflow     Balance
                                   Inflow   Inflow   Occurrence      Volume      Volume       Error
  Node                 Type           LPS      LPS  days hr:min    10^6 ltr    10^6 ltr     Percent
  -------------------------------------------------------------------------------------------------
  WS02003060           JUNCTION     16.53   556.30     0  02:14       0.476        4.31       0.048
  WS02003066           JUNCTION      0.00   539.65     0  02:14           0        3.84       0.034
  WS02003067           JUNCTION      0.00   539.60     0  02:14           0        3.84       0.104
  WS02003069           JUNCTION      0.32   556.71     0  02:14     0.00922        4.32       0.081
  WS02003072           JUNCTION      0.00   556.56     0  02:15           0        4.32       0.149
  WS02003073           JUNCTION      1.82   558.23     0  02:16      0.0524        4.36       0.115
  WS02004401           JUNCTION      0.00  1786.04     0  00:00           0        3.95       0.270
  WS02004402           JUNCTION      0.00  1248.69     0  00:01           0        3.94       0.272
  WS02004403           JUNCTION      0.00   929.44     0  00:01           0        3.93       0.266
  WS02004404           JUNCTION      0.00   877.02     0  00:01           0        3.92       0.207
  WS02004405           JUNCTION      0.00   827.31     0  00:01           0        3.91       0.255
  WS02004406           JUNCTION      0.00   768.45     0  00:02           0         3.9       0.541
  WS02004407           JUNCTION      0.00   541.33     0  02:12           0        3.88       0.021
  WS02004409           JUNCTION      0.00   540.77     0  02:12           0        3.88       0.060
  WS02004410           JUNCTION      0.00   540.21     0  02:12           0        3.87       0.106
  WS02004411           JUNCTION      0.00   540.03     0  02:13           0        3.87       0.137
  WS02004412           JUNCTION      0.00   539.85     0  02:13           0        3.86       0.181
  WS02004413           JUNCTION      0.00   539.61     0  02:13           0        3.86       0.335
  WS02006109           JUNCTION      0.00  1446.81     0  00:00           0        3.84      -0.176
  WS02006110           JUNCTION      0.00   592.04     0  03:06           0        3.82      -1.433
  WS02006111           JUNCTION      0.00  1180.41     0  00:00           0        3.87      -1.098
  WS02006112           JUNCTION      0.00  2307.30     0  00:00           0        3.92      -0.009
  WS02006113           JUNCTION      0.00   608.41     0  03:06           0        3.84      -0.991
  WS02006115           JUNCTION      0.00   953.54     0  00:00           0        3.89      -0.923
  WS02006116           JUNCTION      0.00  1264.47     0  00:00           0        3.92      -0.642
  WS02006228           JUNCTION      0.00   869.18     0  00:00           0        3.82      -0.041
  WS02006229           JUNCTION      0.00   576.86     0  03:06           0        3.81      -0.042
  WS02006230           JUNCTION     10.28   706.67     0  00:00       0.296         3.8       0.048
  WS02006231           JUNCTION      0.00   581.20     0  03:06           0        3.49      -0.043
  WS02006232           JUNCTION      0.00   577.75     0  03:06           0        3.49       0.156
  WS02006234           JUNCTION      0.00   567.25     0  03:05           0        3.48      -0.187
  WS02006235           JUNCTION      0.00   570.18     0  01:45           0        3.53       0.158
  WS02006238           JUNCTION      0.00   425.13     0  02:30           0        2.79      -0.147
  WS02006239           JUNCTION      0.00   423.56     0  02:30           0        2.75      -0.232
  WS02006240           JUNCTION      0.00   420.57     0  02:30           0        2.73      -0.061
  WS02006242           JUNCTION      0.00   420.14     0  02:30           0        2.72       0.080
  WS02006243           JUNCTION      0.00   419.39     0  02:30           0        2.71      -0.297
  WS02006245           JUNCTION      0.00   419.88     0  02:30           0        2.72       0.464
  WS02006247           JUNCTION      0.00   420.33     0  02:30           0        2.72       0.004
  WS02006248           JUNCTION      0.00   421.60     0  02:30           0        2.72      -0.065
  WS02006249           JUNCTION      0.00   466.84     0  01:40           0        2.93       0.680
  WS02006251           JUNCTION      0.00   407.69     0  01:53           0        2.93       0.000
  WS02006252           JUNCTION      0.00   400.00     0  01:40           0        2.93      -0.322
  WS02006256           JUNCTION      0.00   300.00     0  00:05           0         1.1      -1.360
  WSF200               JUNCTION      0.00   539.67     0  02:14           0        3.84       0.008
  YS02001580           JUNCTION      0.00   181.61     0  01:46           0      0.0047       1.786
  YS02001583           JUNCTION      0.00   265.59     0  01:46           0      0.0148     -11.639
  YS02001586           JUNCTION    571.81   571.96     0  01:53        1.34        1.36       0.132
  YS02001590           JUNCTION      0.00   318.13     0  01:53           0        1.14      -0.042
  YS02001593           JUNCTION      0.00   318.10     0  01:53           0        1.14       0.004
  YS02001596           JUNCTION      0.00   318.17     0  01:53           0        1.14      -0.003
  YS02001600           JUNCTION      0.00   318.62     0  02:01           0        1.14       0.004
  YS02001601           JUNCTION   1090.11  1407.80     0  01:52        1.88        3.02       0.006
  YS02001602           JUNCTION      0.00   577.80     0  01:46           0           2       0.019
  YS02001605           JUNCTION      0.00   577.90     0  01:46           0         1.9       0.022
  YS02001607           JUNCTION      0.00   577.79     0  01:46           0         1.9       0.097
  YS02001610           JUNCTION      0.00   548.33     0  01:46           0        1.97       0.101
  YS02001613           JUNCTION      0.00   551.88     0  01:46           0        1.61       0.098
  YS02001616           JUNCTION      0.00   557.68     0  01:46           0        1.61       0.017
  YS02001619           JUNCTION   1017.52  1017.52     0  01:53        2.14        3.69      -0.011
  YS02001622           JUNCTION      0.00   957.35     0  01:47           0        3.62      -0.010
  YS02001625           JUNCTION      0.00  1119.78     0  01:53           0        3.69       0.228
  YS02001629           JUNCTION      0.00   951.46     0  01:47           0        3.05       0.012
  YS02001633           JUNCTION    813.03  1418.07     0  01:48        1.36        4.31       0.072
  YS02001641           JUNCTION      0.00  1417.68     0  01:48           0        4.23       0.062
  YS02001644           JUNCTION    731.41  1944.98     0  01:48        1.18         5.4       0.052
  YS02001647           JUNCTION      0.00  1944.58     0  01:48           0        5.29       0.008
  YS02001649           JUNCTION      0.00  2224.36     0  01:48           0        6.36       0.003
  YS02001652           JUNCTION      0.00   912.53     0  01:51           0        1.07      -0.152
  YS02001655           JUNCTION      0.00   911.48     0  01:51           0        1.07      -0.085
  YS02001658           JUNCTION      0.00   910.88     0  01:51           0        1.07      -0.057
  YS02001661           JUNCTION      0.00   870.38     0  01:50           0        1.07       0.034
  YS02001664           JUNCTION    717.15   717.15     0  01:51        1.07        1.07      -0.011
  YS02001745           JUNCTION    480.61   713.70     0  01:49       0.654       0.656       0.294
  YS02001748           JUNCTION      0.00   826.82     0  01:49           0       0.658      -0.556
  YS02001751           JUNCTION      0.00   648.93     0  01:50           0       0.667       0.127
  YS02001754           JUNCTION      0.00   649.39     0  01:50           0       0.672      -0.280
  YS02001757           JUNCTION      0.00  3544.87     0  01:50           0        9.26       0.061
  YS02001759           JUNCTION    662.57  1498.24     0  01:49         0.9        2.23      -0.021
  YS02001762           JUNCTION      0.00   841.58     0  01:49           0        1.33      -0.002
  YS02001765           JUNCTION      0.00   843.17     0  01:49           0        1.33      -0.002
  YS02001767           JUNCTION      0.00   843.88     0  01:49           0        1.33      -0.010
  YS02001770           JUNCTION    923.03   923.03     0  01:51        1.38        1.42      -0.021
  YS02001774           JUNCTION      0.00   631.12     0  01:48           0       0.107       0.883
  YS02001779           JUNCTION      0.00   635.79     0  01:48           0      0.0635      -1.061
  YS02001783           JUNCTION      0.00  1163.55     0  01:49           0        3.36       0.001
  YS02001784           JUNCTION      0.00  1163.44     0  01:49           0        3.36      -0.000
  YS02001786           JUNCTION      0.00  1163.72     0  01:49           0        3.36       0.008
  YS02001788           JUNCTION      0.00  1165.19     0  01:49           0        3.36       0.002
  YS02001790           JUNCTION      0.00  1173.98     0  01:48           0        3.36       0.014
  YS02001791           JUNCTION      0.00  1289.40     0  01:53           0        3.36      -0.027
  YS02001793           JUNCTION      0.00  1240.79     0  01:55           0        3.36       0.004
  YS02001882           JUNCTION      0.00   123.32     0  01:47           0      0.0126       3.469
  YS02001884           JUNCTION      0.00   153.11     0  01:47           0      0.0484       4.135
  YS02001887           JUNCTION    739.71   739.71     0  01:50       0.936        0.97       0.398
  YS02001890           JUNCTION      0.00   739.93     0  01:50           0        0.93       0.465
  YS02001895           JUNCTION      0.00   615.85     0  01:48           0       0.875       0.169
  YS02001898           JUNCTION      0.00   615.20     0  01:48           0       0.873      -0.097
  YS02001901           JUNCTION      0.00   613.98     0  01:48           0       0.874       0.305
  YS02001904           JUNCTION      0.00   613.26     0  01:48           0       0.877       0.244
  YS02001907           JUNCTION      0.00  1736.76     0  01:49           0        2.88       0.545
  YS02001910           JUNCTION      0.00  1199.26     0  01:49           0           2       0.310
  YS02001915           JUNCTION    793.07  1199.13     0  01:49        1.31        2.06       0.034
  YS02001918           JUNCTION      0.00   790.31     0  01:48           0       0.777      -0.035
  YS02001920           JUNCTION      0.00   765.69     0  01:48           0       0.751       0.040
  YS02001923           JUNCTION      0.00  1014.27     0  01:48           0       0.734      -0.143
  YS02001926           JUNCTION      0.00  1242.05     0  01:48           0       0.714      -0.134
  YS02001929           JUNCTION    375.88   912.62     0  01:48       0.691       0.697      -0.116
  YS02006553           JUNCTION      0.00   795.78     0  02:07           0        2.05       0.536
  YS02006556           JUNCTION      0.00   796.44     0  02:06           0        2.07       0.341
  YS02006558           JUNCTION    945.28  1167.25     0  01:47        1.36        3.39       0.089
  YS02006561           JUNCTION      0.00  1170.49     0  01:47           0        3.36      -0.000
  YS02163301           JUNCTION      0.00   861.01     0  01:47           0        3.04       0.044
  YS02163601           JUNCTION      0.00  1418.16     0  01:48           0        4.22       0.114
  YS02164001           JUNCTION      0.00  1418.04     0  01:48           0        4.22       0.049
  CC-1                 OUTFALL       0.00   683.00     0  00:25           0        3.28       0.000
  CC-2                 OUTFALL       0.00   683.00     0  00:05           0         3.9       0.000
  JK-1                 OUTFALL       0.00  1000.00     0  01:51           0        1.64       0.000
  JK-2                 OUTFALL       0.00  1000.00     0  00:05           0       0.744       0.000
  WSC                  OUTFALL       0.00   558.03     0  02:17           0        4.36       0.000
  CC-storage           STORAGE       0.00  3546.63     0  01:50           0        11.5      -0.275
  JK-storage           STORAGE       0.00  1301.85     0  01:55           0        3.51      -0.502
  
  
  **********************
  Node Surcharge Summary
  **********************
  
  Surcharging occurs when water rises above the top of the highest conduit.
  ---------------------------------------------------------------------
                                               Max. Height   Min. Depth
                                   Hours       Above Crown    Below Rim
  Node                 Type      Surcharged         Meters       Meters
  ---------------------------------------------------------------------
  WS02004404           JUNCTION        0.03          0.060        2.720
  WS02006109           JUNCTION        1.46          0.875        0.945
  WS02006110           JUNCTION        0.71          0.953        0.897
  WS02006111           JUNCTION        0.01          0.856        1.014
  WS02006112           JUNCTION        0.78          1.680        0.000
  WS02006113           JUNCTION        0.01          0.705        1.225
  WS02006115           JUNCTION        0.01          0.682        1.568
  WS02006116           JUNCTION        0.01          0.053        2.237
  WS02006228           JUNCTION        1.44          0.810        1.390
  WS02006229           JUNCTION        1.47          0.510        1.940
  WS02006230           JUNCTION        0.70          0.337        1.233
  WS02006231           JUNCTION        0.76          0.460        1.070
  WS02006232           JUNCTION        1.51          0.754        0.726
  WS02006234           JUNCTION        0.93          1.038        0.202
  WS02006235           JUNCTION        1.48          1.290        0.000
  WS02006238           JUNCTION        1.50          1.430        0.000
  WS02006239           JUNCTION        1.39          1.290        0.000
  WS02006240           JUNCTION        1.39          1.390        0.000
  WS02006242           JUNCTION        1.40          0.820        0.000
  WS02006243           JUNCTION        1.39          0.770        0.000
  WS02006245           JUNCTION        1.39          0.850        0.000
  WS02006247           JUNCTION        1.39          0.760        0.000
  WS02006248           JUNCTION        1.38          0.380        0.000
  WS02006249           JUNCTION        1.38          0.390        0.000
  WS02006251           JUNCTION        0.79          0.368        0.812
  WS02006252           JUNCTION        1.52          1.100        0.000
  WS02006256           JUNCTION        5.76          2.050        0.000
  YS02001580           JUNCTION        0.49          0.450        0.000
  YS02001583           JUNCTION        0.49          0.500        0.000
  YS02001586           JUNCTION        0.62          0.510        0.000
  YS02001590           JUNCTION        0.68          0.750        0.000
  YS02001593           JUNCTION        0.68          0.840        0.000
  YS02001596           JUNCTION        0.77          1.070        0.000
  YS02001600           JUNCTION        0.90          1.190        0.000
  YS02001601           JUNCTION        1.26          1.440        0.000
  YS02001602           JUNCTION        1.13          1.270        0.000
  YS02001605           JUNCTION        1.07          1.180        0.000
  YS02001607           JUNCTION        0.64          0.680        0.000
  YS02001610           JUNCTION        0.67          0.680        0.000
  YS02001613           JUNCTION        0.64          0.696        0.004
  YS02001616           JUNCTION        0.60          0.610        0.000
  YS02001619           JUNCTION        0.59          0.610        0.000
  YS02001622           JUNCTION        0.59          0.620        0.000
  YS02001625           JUNCTION        0.74          0.780        0.000
  YS02001629           JUNCTION        0.54          0.470        0.000
  YS02001633           JUNCTION        0.76          1.060        0.000
  YS02001641           JUNCTION        0.70          0.996        0.104
  YS02001644           JUNCTION        0.68          0.920        0.000
  YS02001647           JUNCTION        0.49          0.813        0.087
  YS02001649           JUNCTION        0.59          1.050        0.000
  YS02001652           JUNCTION        0.42          1.130        0.000
  YS02001655           JUNCTION        0.27          1.200        0.000
  YS02001658           JUNCTION        0.11          1.300        0.000
  YS02001661           JUNCTION        0.01          1.386        0.004
  YS02001745           JUNCTION        0.01          1.350        0.000
  YS02001748           JUNCTION        0.02          1.190        0.000
  YS02001751           JUNCTION        0.16          1.200        0.000
  YS02001754           JUNCTION        0.32          1.150        0.000
  YS02001757           JUNCTION        0.65          1.210        0.000
  YS02001759           JUNCTION        0.56          1.203        0.007
  YS02001762           JUNCTION        0.52          1.150        0.000
  YS02001765           JUNCTION        0.48          1.100        0.000
  YS02001767           JUNCTION        0.45          1.030        0.000
  YS02001770           JUNCTION        0.42          0.920        0.000
  YS02001774           JUNCTION        0.51          1.013        0.037
  YS02001779           JUNCTION        0.31          0.680        0.000
  YS02001783           JUNCTION        0.46          0.516        1.084
  YS02001784           JUNCTION        0.44          0.429        1.061
  YS02001786           JUNCTION        0.35          0.757        0.673
  YS02001882           JUNCTION        0.41          0.830        0.000
  YS02001884           JUNCTION        0.42          0.870        0.000
  YS02001887           JUNCTION        0.45          0.884        0.066
  YS02001890           JUNCTION        0.46          0.760        0.000
  YS02001895           JUNCTION        0.40          0.750        0.000
  YS02001898           JUNCTION        0.39          0.740        0.000
  YS02001901           JUNCTION        0.44          0.870        0.000
  YS02001904           JUNCTION        0.43          0.850        0.000
  YS02001907           JUNCTION        0.62          0.950        0.000
  YS02001910           JUNCTION        0.48          1.100        0.000
  YS02001915           JUNCTION        0.41          1.000        0.000
  YS02001918           JUNCTION        0.33          0.810        0.000
  YS02001920           JUNCTION        0.35          1.140        0.000
  YS02001923           JUNCTION        0.02          0.820        0.000
  YS02001926           JUNCTION        0.04          0.900        0.000
  YS02001929           JUNCTION        0.01          0.780        0.000
  YS02006553           JUNCTION        0.64          1.002        0.188
  YS02006556           JUNCTION        0.55          0.976        0.374
  YS02006558           JUNCTION        0.54          0.969        0.431
  YS02006561           JUNCTION        0.31          0.243        0.907
  YS02163301           JUNCTION        0.74          0.957        0.073
  YS02163601           JUNCTION        0.78          1.080        0.000
  YS02164001           JUNCTION        0.71          1.024        0.076
  
  
  *********************
  Node Flooding Summary
  *********************
  
  Flooding refers to all water that overflows a node, whether it ponds or not.
  --------------------------------------------------------------------------
                                                             Total   Maximum
                                 Maximum   Time of Max       Flood    Ponded
                        Hours       Rate    Occurrence      Volume     Depth
  Node                 Flooded       LPS   days hr:min    10^6 ltr    Meters
  --------------------------------------------------------------------------
  WS02006112              0.01   1405.86      0  00:00       0.047     0.000
  WS02006235              0.01      2.99      0  03:06       0.000     0.000
  WS02006238              0.01      2.76      0  03:06       0.000     0.000
  WS02006239              0.01      1.53      0  03:06       0.000     0.000
  WS02006240              0.01      2.28      0  03:06       0.000     0.000
  WS02006242              0.01     17.75      0  03:06       0.000     0.000
  WS02006243              0.01      2.06      0  01:53       0.000     0.000
  WS02006245              0.01      1.95      0  01:53       0.000     0.000
  WS02006247              0.01      2.24      0  01:53       0.000     0.000
  WS02006248              0.01     47.45      0  01:52       0.001     0.000
  WS02006249              0.78    129.01      0  01:53       0.194     0.000
  WS02006252              0.01      0.91      0  01:51       0.000     0.000
  WS02006256              1.01    261.01      0  02:35       0.354     0.000
  YS02001580              0.01    129.24      0  01:46       0.001     0.000
  YS02001583              0.01    238.98      0  01:47       0.000     0.000
  YS02001586              0.38    254.90      0  01:53       0.200     0.000
  YS02001590              0.01    115.61      0  01:45       0.000     0.000
  YS02001593              0.01      2.64      0  01:47       0.000     0.000
  YS02001596              0.01      0.58      0  01:47       0.000     0.000
  YS02001600              0.01      5.07      0  01:46       0.000     0.000
  YS02001601              0.55   1009.96      0  01:52       1.026     0.000
  YS02001602              0.45     61.99      0  01:56       0.092     0.000
  YS02001605              0.01      7.93      0  01:46       0.000     0.000
  YS02001607              0.01     72.35      0  01:46       0.000     0.000
  YS02001610              0.40    498.72      0  01:53       0.418     0.000
  YS02001616              0.01    207.14      0  01:46       0.000     0.000
  YS02001619              0.01    249.61      0  01:46       0.001     0.000
  YS02001622              0.01    290.98      0  01:46       0.001     0.000
  YS02001625              0.36   1119.39      0  01:53       0.713     0.000
  YS02001629              0.08    386.36      0  01:47       0.036     0.000
  YS02001633              0.01      3.17      0  01:48       0.000     0.000
  YS02001644              0.10    597.08      0  01:50       0.102     0.000
  YS02001649              0.01     37.10      0  01:50       0.000     0.000
  YS02001652              0.01    284.92      0  01:48       0.000     0.000
  YS02001655              0.01    505.87      0  01:49       0.001     0.000
  YS02001658              0.01    515.75      0  01:49       0.001     0.000
  YS02001745              0.01    133.24      0  01:49       0.000     0.000
  YS02001748              0.01    532.97      0  01:49       0.001     0.000
  YS02001751              0.01    276.27      0  01:49       0.000     0.000
  YS02001754              0.01    343.03      0  01:49       0.000     0.000
  YS02001757              0.01      9.91      0  01:49       0.000     0.000
  YS02001762              0.01      9.58      0  01:49       0.000     0.000
  YS02001765              0.01      6.44      0  01:49       0.000     0.000
  YS02001767              0.01    161.83      0  01:48       0.000     0.000
  YS02001770              0.01    405.67      0  01:48       0.001     0.000
  YS02001779              0.09    608.00      0  01:48       0.046     0.000
  YS02001882              0.01     75.22      0  01:47       0.000     0.000
  YS02001884              0.01     19.72      0  01:47       0.000     0.000
  YS02001890              0.12    211.00      0  01:47       0.051     0.000
  YS02001895              0.01    232.01      0  01:47       0.000     0.000
  YS02001898              0.01    275.72      0  01:47       0.001     0.000
  YS02001901              0.01      9.36      0  01:47       0.000     0.000
  YS02001904              0.01     58.30      0  01:47       0.000     0.000
  YS02001907              0.28   1511.61      0  01:50       0.821     0.000
  YS02001910              0.01      8.48      0  01:48       0.000     0.000
  YS02001915              0.01    235.27      0  01:47       0.000     0.000
  YS02001918              0.01    248.47      0  01:49       0.004     0.000
  YS02001920              0.01    317.32      0  01:48       0.000     0.000
  YS02001923              0.01    399.69      0  01:48       0.003     0.000
  YS02001926              0.01    822.35      0  01:48       0.005     0.000
  YS02001929              0.01    835.95      0  01:48       0.002     0.000
  YS02163601              0.01      8.56      0  01:48       0.000     0.000
  
  
  **********************
  Storage Volume Summary
  **********************
  
  --------------------------------------------------------------------------------------------------
                         Average     Avg  Evap Exfil       Maximum     Max    Time of Max    Maximum
                          Volume    Pcnt  Pcnt  Pcnt        Volume    Pcnt     Occurrence    Outflow
  Storage Unit           1000 m3    Full  Loss  Loss       1000 m3    Full    days hr:min        LPS
  --------------------------------------------------------------------------------------------------
  CC-storage               2.073      32     0     0         4.178      65       0  02:18    1766.00
  JK-storage               0.074      26     0     0         0.212      73       0  01:51    2300.00
  
  
  ***********************
  Outfall Loading Summary
  ***********************
  
  -----------------------------------------------------------
                         Flow       Avg       Max       Total
                         Freq      Flow      Flow      Volume
  Outfall Node           Pcnt       LPS       LPS    10^6 ltr
  -----------------------------------------------------------
  CC-1                  27.14    683.00    683.00       3.283
  CC-2                  35.87    683.00    683.00       3.901
  JK-1                   8.02   1000.00   1000.00       1.643
  JK-2                   5.09   1000.00   1000.00       0.744
  WSC                   99.99    210.55    558.03       4.359
  -----------------------------------------------------------
  System                35.22   3576.55    558.03      13.931
  
  
  ********************
  Link Flow Summary
  ********************
  
  -----------------------------------------------------------------------------
                                 Maximum  Time of Max   Maximum    Max/    Max/
                                  |Flow|   Occurrence   |Veloc|    Full    Full
  Link                 Type          LPS  days hr:min     m/sec    Flow   Depth
  -----------------------------------------------------------------------------
  1                    CONDUIT    558.03     0  02:17      2.83    0.19    0.30
  WS02003060WS02003069 CONDUIT    556.39     0  02:14      1.64    0.22    0.34
  WS02003066WSF200     CONDUIT    539.67     0  02:14      2.86    0.09    0.22
  WS02003067WS02003066 CONDUIT    539.65     0  02:14      1.21    0.17    0.42
  WS02003069WS02003072 CONDUIT    556.56     0  02:15      1.37    0.27    0.39
  WS02003072WS02003073 CONDUIT    556.41     0  02:16      1.44    1.20    0.37
  WS02004401WS02004402 CONDUIT   1248.69     0  00:01      2.52    1.50    0.89
  WS02004402WS02004403 CONDUIT    929.44     0  00:01      2.21    1.34    0.91
  WS02004403WS02004404 CONDUIT    877.02     0  00:01      2.01    0.63    0.96
  WS02004404WS02004405 CONDUIT    827.31     0  00:01      2.30    8.11    0.98
  WS02004405WS02004406 CONDUIT    768.45     0  00:02      2.19    1.52    0.96
  WS02004406WS02004407 CONDUIT    541.33     0  02:12      1.04    0.24    0.63
  WS02004407WS02004409 CONDUIT    540.77     0  02:12      2.06    0.19    0.48
  WS02004409WS02004410 CONDUIT    540.21     0  02:12      1.39    0.70    0.68
  WS02004410WS02004411 CONDUIT    540.03     0  02:13      1.32    0.74    0.69
  WS02004411WS02004412 CONDUIT    539.85     0  02:13      1.30    0.77    0.70
  WS02004412WS02004413 CONDUIT    539.61     0  02:13      1.26    0.36    0.78
  WS02004413WS02003067 CONDUIT    539.60     0  02:14      1.11    0.23    0.59
  WS02006109WS02006110 CONDUIT   1446.81     0  00:00      2.88    2.78    1.00
  WS02006110WS02006113 CONDUIT    608.41     0  03:06      1.45    0.55    1.00
  WS02006111WS02006112 CONDUIT   2307.30     0  00:00      9.18    1.10    1.00
  WS02006112WS02006115 CONDUIT    953.54     0  00:00      1.24    0.56    1.00
  WS02006113WS02006111 CONDUIT   1180.41     0  00:00      2.47    1.41    1.00
  WS02006115WS02006116 CONDUIT   1264.47     0  00:00      1.74    1.62    1.00
  WS02006116WS02004401 CONDUIT   1786.04     0  00:00      2.94    2.46    0.87
  WS02006228WS02006109 CONDUIT    869.18     0  00:00      1.91    3.80    1.00
  WS02006229WS02006228 CONDUIT    577.80     0  03:06      1.15    1.91    1.00
  WS02006230WS02006229 CONDUIT    696.39     0  00:00      1.89   15.50    1.00
  WS02006231WS02006230 CONDUIT    577.68     0  03:06      1.91    8.76    1.00
  WS02006232WS02006231 CONDUIT    581.20     0  03:06      1.80    1.22    1.00
  WS02006234WS02006232 CONDUIT    577.75     0  03:06      1.50    1.17    1.00
  WS02006235WS02006234 CONDUIT    567.25     0  03:05      1.48    5.98    1.00
  WS02006238WS02006235 CONDUIT    424.33     0  02:30      1.59    0.95    1.00
  WS02006239WS02006238 CONDUIT    425.13     0  02:30      1.10    1.36    1.00
  WS02006240WS02006239 CONDUIT    423.56     0  02:30      1.25    1.33    1.00
  WS02006242WS02006240 CONDUIT    420.57     0  02:30      1.11    1.67    1.00
  WS02006243WS02006242 CONDUIT    420.14     0  02:30      1.36    0.90    1.00
  WS02006245WS02006243 CONDUIT    419.39     0  02:30      1.34    1.24    1.00
  WS02006247WS02006245 CONDUIT    419.88     0  02:30      1.38    3.33    1.00
  WS02006248WS02006247 CONDUIT    420.33     0  02:30      1.43    0.91    1.00
  WS02006249WS02006248 CONDUIT    421.60     0  02:30      1.41    2.31    1.00
  WS02006251WS02006249 CONDUIT    466.84     0  01:40      2.01    1.35    1.00
  WS02006252WS02006251 CONDUIT    407.69     0  01:53     17.80    1.50    1.00
  WS02006256WS02006235 CONDUIT    288.44     0  00:05      4.18    3.05    1.00
  WSF200WS02003060     CONDUIT    539.77     0  02:14      2.06    0.12    0.28
  YS02001580YS02001583 CONDUIT    181.61     0  01:46      0.93    0.70    1.00
  YS02001583YS02001586 CONDUIT    209.53     0  01:46      0.95    0.32    1.00
  YS02001586YS02001590 CONDUIT    318.13     0  01:53      1.28    0.56    1.00
  YS02001590YS02001593 CONDUIT    318.10     0  01:53      1.13    2.00    1.00
  YS02001593YS02001596 CONDUIT    318.17     0  01:53      1.74    0.50    1.00
  YS02001596YS02001600 CONDUIT    318.62     0  02:01      1.21    0.62    1.00
  YS02001600YS02001601 CONDUIT    318.01     0  02:01      1.12    0.55    1.00
  YS02001601YS02001602 CONDUIT    577.80     0  01:46      2.04    2.09    1.00
  YS02001602YS02001605 CONDUIT    577.90     0  01:46      2.04   12.23    1.00
  YS02001605YS02001607 CONDUIT    577.79     0  01:46      2.04    3.17    1.00
  YS02001607YS02001610 CONDUIT    548.33     0  01:46      0.71    0.52    1.00
  YS02001610YS02001613 CONDUIT    551.88     0  01:46      0.70    0.64    1.00
  YS02001613YS02001616 CONDUIT    557.68     0  01:46      0.71    0.48    1.00
  YS02001616YS02001619 CONDUIT    494.73     0  01:46      0.67    0.86    1.00
  YS02001619YS02001622 CONDUIT    957.35     0  01:47      1.28    1.41    1.00
  YS02001622YS02001625 CONDUIT    956.58     0  01:47      1.22    0.51    1.00
  YS02001625YS02001629 CONDUIT    951.46     0  01:47      1.21    0.45    1.00
  YS02001629YS02163301 CONDUIT    861.01     0  01:47      1.10    1.06    1.00
  YS02001633YS02163601 CONDUIT   1418.16     0  01:48      1.81    1.49    1.00
  YS02001641YS02001644 CONDUIT   1417.31     0  01:48      1.80    4.58    1.00
  YS02001644YS02001647 CONDUIT   1944.58     0  01:48      2.48    1.14    1.00
  YS02001647YS02001649 CONDUIT   1965.92     0  01:48      2.50    1.04    1.00
  YS02001649YS02001757 CONDUIT   2223.79     0  01:48      2.83    1.35    1.00
  YS02001652YS02001649 CONDUIT    911.88     0  01:51      1.16    0.45    1.00
  YS02001655YS02001652 CONDUIT    912.53     0  01:51      1.49    0.44    1.00
  YS02001658YS02001655 CONDUIT    911.48     0  01:51      2.07    0.39    1.00
  YS02001661YS02001658 CONDUIT    910.88     0  01:51      2.48    0.36    1.00
  YS02001664YS02001661 CONDUIT    870.38     0  01:50      2.53    0.27    0.86
  YS02001745YS02001748 CONDUIT    720.33     0  01:49      2.45    0.28    1.00
  YS02001748YS02001751 CONDUIT    648.93     0  01:50      1.94    0.33    1.00
  YS02001751YS02001754 CONDUIT    649.39     0  01:50      1.59    0.31    1.00
  YS02001754YS02001757 CONDUIT    649.54     0  01:50      0.83    0.26    1.00
  YS02001757CaochengTiaoxuchi CONDUIT   3546.63     0  01:50      4.85    1.54    1.00
  YS02001759YS02001757 CONDUIT   1501.02     0  01:49      1.91    1.07    1.00
  YS02001762YS02001759 CONDUIT    840.97     0  01:49      1.07    0.97    1.00
  YS02001765YS02001762 CONDUIT    841.58     0  01:49      1.07    0.79    1.00
  YS02001767YS02001765 CONDUIT    843.17     0  01:49      1.07    1.06    1.00
  YS02001770YS02001767 CONDUIT    843.88     0  01:49      1.07    3.34    1.00
  YS02001774YS02001770 CONDUIT    631.12     0  01:48      0.80    0.40    1.00
  YS02001779YS02001774 CONDUIT    635.79     0  01:48      0.81    0.32    1.00
  YS02001783YS02001784 CONDUIT   1163.44     0  01:49      2.31    1.60    1.00
  YS02001784YS02001785 CONDUIT   1163.72     0  01:49      2.32    2.71    1.00
  YS02001786YS02001788 CONDUIT   1165.19     0  01:49      2.49    2.25    0.89
  YS02001788YS02001790 CONDUIT   1173.98     0  01:48      2.72    0.87    0.84
  YS02001790YS02001791 CONDUIT   1289.40     0  01:53      3.43    1.40    0.70
  YS02001791YS02001793 CONDUIT   1240.79     0  01:55      6.76    0.53    0.44
  YS02001793JiankangQianchi CONDUIT   1301.85     0  01:55      2.59    0.10    0.64
  YS02001882YS02001884 CONDUIT    123.32     0  01:47      0.16    0.14    1.00
  YS02001884YS02001887 CONDUIT    153.11     0  01:47      0.19    0.20    1.00
  YS02001887YS02001890 CONDUIT    739.93     0  01:50      0.94    1.27    1.00
  YS02001890YS02001895 CONDUIT    615.85     0  01:48      0.78    0.29    1.00
  YS02001895YS02001898 CONDUIT    615.20     0  01:48      0.78    1.07    1.00
  YS02001898YS02001901 CONDUIT    613.98     0  01:48      0.78    0.40    1.00
  YS02001901YS02001904 CONDUIT    613.26     0  01:48      0.78    0.95    1.00
  YS02001904YS02001907 CONDUIT    614.02     0  01:48      0.78    0.21    1.00
  YS02001907YS02006553 CONDUIT    795.78     0  02:07      0.88    0.94    1.00
  YS02001910YS02001907 CONDUIT   1199.20     0  01:49      1.53    0.68    1.00
  YS02001915YS02001910 CONDUIT   1199.26     0  01:49      1.53    0.60    1.00
  YS02001918YS02001915 CONDUIT    790.31     0  01:48      1.01    0.44    1.00
  YS02001920YS02001918 CONDUIT    765.69     0  01:48      0.98    0.74    1.00
  YS02001923YS02001920 CONDUIT    779.54     0  01:48      1.06    0.35    1.00
  YS02001926YS02001923 CONDUIT   1004.62     0  01:48      1.43    1.43    1.00
  YS02001929YS02001926 CONDUIT    616.28     0  01:48      1.24    0.29    1.00
  YS02006553YS02006556 CONDUIT    796.44     0  02:06      1.01    0.68    1.00
  YS02006556YS02006558 CONDUIT    797.32     0  02:07      1.02    0.63    1.00
  YS02006558YS02006561 CONDUIT   1170.49     0  01:47      4.14    2.59    1.00
  YS02006561YS02001783 CONDUIT   1163.55     0  01:49      2.31    0.60    1.00
  YS02163301YS02001633 CONDUIT    860.90     0  01:47      1.10    0.81    1.00
  YS02163601YS02164001 CONDUIT   1418.04     0  01:48      1.81    1.26    1.00
  YS02164001YS02001641 CONDUIT   1417.68     0  01:48      1.81    1.94    1.00
  CC-R1                PUMP       683.00     0  00:25              1.00
  CC-R2                PUMP       683.00     0  00:05              1.00
  CC-S1                PUMP       200.00     0  00:05              1.00
  CC-S2                PUMP       200.00     0  00:10              1.00
  JK-R1                PUMP      1000.00     0  01:51              1.00
  JK-R2                PUMP      1000.00     0  00:05              1.00
  JK-S                 PUMP       300.00     0  00:05              1.00
  
  
  ***************************
  Flow Classification Summary
  ***************************
  
  -------------------------------------------------------------------------------------
                      Adjusted    ---------- Fraction of Time in Flow Class ---------- 
                       /Actual         Up    Down  Sub   Sup   Up    Down  Norm  Inlet 
  Conduit               Length    Dry  Dry   Dry   Crit  Crit  Crit  Crit  Ltd   Ctrl  
  -------------------------------------------------------------------------------------
  1                       1.00   0.00  0.00  0.00  0.00  1.00  0.00  0.00  0.50  0.00
  WS02003060WS02003069    1.00   0.00  0.00  0.00  0.96  0.04  0.00  0.00  0.76  0.00
  WS02003066WSF200        1.00   0.04  0.00  0.00  0.00  0.96  0.00  0.00  0.88  0.00
  WS02003067WS02003066    1.00   0.02  0.02  0.00  0.96  0.00  0.00  0.00  0.00  0.00
  WS02003069WS02003072    1.00   0.00  0.00  0.00  1.00  0.00  0.00  0.00  0.80  0.00
  WS02003072WS02003073    1.00   0.00  0.00  0.00  0.00  0.00  0.00  1.00  0.00  0.00
  WS02004401WS02004402    1.00   0.00  0.00  0.00  1.00  0.00  0.00  0.00  0.00  0.00
  WS02004402WS02004403    1.00   0.00  0.00  0.00  1.00  0.00  0.00  0.00  0.00  0.00
  WS02004403WS02004404    1.00   0.00  0.00  0.00  1.00  0.00  0.00  0.00  0.00  0.00
  WS02004404WS02004405    1.00   0.00  0.00  0.00  1.00  0.00  0.00  0.00  0.01  0.00
  WS02004405WS02004406    1.00   0.00  0.00  0.00  1.00  0.00  0.00  0.00  0.00  0.00
  WS02004406WS02004407    1.00   0.00  0.00  0.00  1.00  0.00  0.00  0.00  0.00  0.00
  WS02004407WS02004409    1.00   0.00  0.00  0.00  0.99  0.01  0.00  0.00  0.99  0.00
  WS02004409WS02004410    1.00   0.00  0.00  0.00  1.00  0.00  0.00  0.00  0.00  0.00
  WS02004410WS02004411    1.00   0.00  0.00  0.00  1.00  0.00  0.00  0.00  0.00  0.00
  WS02004411WS02004412    1.00   0.00  0.00  0.00  0.99  0.00  0.00  0.00  0.00  0.00
  WS02004412WS02004413    1.00   0.00  0.00  0.00  0.99  0.01  0.00  0.00  0.00  0.00
  WS02004413WS02003067    1.00   0.00  0.02  0.00  0.00  0.00  0.98  0.00  0.00  0.00
  WS02006109WS02006110    1.00   0.00  0.00  0.00  1.00  0.00  0.00  0.00  0.00  0.00
  WS02006110WS02006113    1.00   0.00  0.00  0.00  1.00  0.00  0.00  0.00  0.00  0.00
  WS02006111WS02006112    1.00   0.00  0.00  0.00  1.00  0.00  0.00  0.00  1.00  0.00
  WS02006112WS02006115    1.00   0.00  0.00  0.00  1.00  0.00  0.00  0.00  0.00  0.00
  WS02006113WS02006111    1.00   0.00  0.00  0.00  0.00  1.00  0.00  0.00  0.11  0.00
  WS02006115WS02006116    1.00   0.00  0.00  0.00  1.00  0.00  0.00  0.00  0.00  0.00
  WS02006116WS02004401    1.00   0.00  0.00  0.00  1.00  0.00  0.00  0.00  0.00  0.00
  WS02006228WS02006109    1.00   0.00  0.00  0.00  1.00  0.00  0.00  0.00  0.00  0.00
  WS02006229WS02006228    1.00   0.00  0.00  0.00  1.00  0.00  0.00  0.00  0.00  0.00
  WS02006230WS02006229    1.00   0.00  0.00  0.00  1.00  0.00  0.00  0.00  0.01  0.00
  WS02006231WS02006230    1.00   0.00  0.00  0.00  0.27  0.00  0.73  0.00  0.00  0.00
  WS02006232WS02006231    1.00   0.00  0.00  0.00  0.99  0.00  0.01  0.00  0.00  0.00
  WS02006234WS02006232    1.00   0.00  0.00  0.00  1.00  0.00  0.00  0.00  0.07  0.00
  WS02006235WS02006234    1.00   0.00  0.00  0.00  0.88  0.00  0.12  0.00  0.00  0.00
  WS02006238WS02006235    1.00   0.00  0.00  0.00  1.00  0.00  0.00  0.00  0.00  0.00
  WS02006239WS02006238    1.00   0.00  0.00  0.00  1.00  0.00  0.00  0.00  0.30  0.00
  WS02006240WS02006239    1.00   0.01  0.00  0.00  0.79  0.00  0.00  0.20  0.03  0.00
  WS02006242WS02006240    1.00   0.01  0.00  0.00  0.97  0.00  0.01  0.00  0.00  0.00
  WS02006243WS02006242    1.00   0.01  0.00  0.00  0.98  0.00  0.00  0.01  0.61  0.00
  WS02006245WS02006243    1.00   0.01  0.00  0.00  0.84  0.00  0.00  0.15  0.01  0.00
  WS02006247WS02006245    1.00   0.01  0.00  0.00  0.93  0.00  0.00  0.06  0.00  0.00
  WS02006248WS02006247    1.00   0.01  0.00  0.00  0.94  0.00  0.00  0.06  0.42  0.00
  WS02006249WS02006248    1.00   0.01  0.00  0.00  0.68  0.00  0.32  0.00  0.00  0.00
  WS02006251WS02006249    1.00   0.01  0.02  0.00  0.96  0.01  0.00  0.00  0.61  0.00
  WS02006252WS02006251    1.00   0.01  0.31  0.00  0.12  0.00  0.56  0.00  0.00  0.00
  WS02006256WS02006235    1.00   0.00  0.00  0.00  0.99  0.01  0.00  0.00  0.01  0.00
  WSF200WS02003060        1.00   0.00  0.04  0.00  0.25  0.70  0.00  0.00  0.74  0.00
  YS02001580YS02001583    1.00   0.30  0.46  0.00  0.24  0.00  0.00  0.00  0.70  0.00
  YS02001583YS02001586    1.00   0.37  0.23  0.00  0.39  0.00  0.00  0.00  0.70  0.00
  YS02001586YS02001590    1.00   0.24  0.00  0.00  0.56  0.02  0.00  0.18  0.35  0.00
  YS02001590YS02001593    1.00   0.24  0.00  0.00  0.16  0.00  0.59  0.00  0.00  0.00
  YS02001593YS02001596    1.00   0.25  0.00  0.00  0.18  0.01  0.00  0.57  0.02  0.00
  YS02001596YS02001600    1.00   0.25  0.00  0.00  0.25  0.01  0.00  0.49  0.06  0.00
  YS02001600YS02001601    1.00   0.25  0.00  0.00  0.75  0.00  0.00  0.00  0.62  0.00
  YS02001601YS02001602    1.00   0.24  0.01  0.00  0.75  0.00  0.00  0.00  0.00  0.00
  YS02001602YS02001605    1.00   0.25  0.00  0.00  0.75  0.00  0.00  0.00  0.00  0.00
  YS02001605YS02001607    1.00   0.25  0.00  0.00  0.75  0.00  0.00  0.00  0.00  0.00
  YS02001607YS02001610    1.00   0.25  0.00  0.00  0.75  0.00  0.00  0.00  0.02  0.00
  YS02001610YS02001613    1.00   0.25  0.00  0.00  0.75  0.00  0.00  0.00  0.01  0.00
  YS02001613YS02001616    1.00   0.24  0.00  0.00  0.76  0.00  0.00  0.00  0.01  0.00
  YS02001616YS02001619    1.00   0.24  0.00  0.00  0.76  0.00  0.00  0.00  0.00  0.00
  YS02001619YS02001622    1.00   0.24  0.00  0.00  0.76  0.00  0.00  0.00  0.30  0.00
  YS02001622YS02001625    1.00   0.24  0.00  0.00  0.76  0.00  0.00  0.00  0.05  0.00
  YS02001625YS02001629    1.00   0.24  0.02  0.00  0.20  0.00  0.53  0.00  0.00  0.00
  YS02001629YS02163301    1.00   0.26  0.00  0.00  0.74  0.00  0.00  0.00  0.00  0.00
  YS02001633YS02163601    1.00   0.25  0.00  0.00  0.75  0.00  0.00  0.00  0.02  0.00
  YS02001641YS02001644    1.00   0.24  0.00  0.00  0.75  0.00  0.00  0.00  0.00  0.00
  YS02001644YS02001647    1.00   0.24  0.02  0.00  0.73  0.00  0.00  0.00  0.00  0.00
  YS02001647YS02001649    1.00   0.25  0.01  0.00  0.37  0.36  0.00  0.00  0.58  0.00
  YS02001649YS02001757    1.00   0.00  0.25  0.00  0.38  0.36  0.00  0.00  0.22  0.00
  YS02001652YS02001649    1.00   0.25  0.00  0.00  0.73  0.02  0.00  0.00  0.63  0.00
  YS02001655YS02001652    1.00   0.25  0.00  0.00  0.24  0.01  0.00  0.50  0.06  0.00
  YS02001658YS02001655    1.00   0.25  0.00  0.00  0.41  0.34  0.00  0.00  0.70  0.00
  YS02001661YS02001658    1.00   0.25  0.00  0.00  0.28  0.47  0.00  0.00  0.73  0.00
  YS02001664YS02001661    1.00   0.24  0.00  0.00  0.61  0.14  0.00  0.00  0.86  0.00
  YS02001745YS02001748    1.00   0.24  0.00  0.00  0.11  0.01  0.00  0.64  0.05  0.00
  YS02001748YS02001751    1.00   0.24  0.00  0.00  0.52  0.24  0.00  0.00  0.67  0.00
  YS02001751YS02001754    1.00   0.24  0.00  0.00  0.18  0.01  0.00  0.56  0.02  0.00
  YS02001754YS02001757    1.00   0.00  0.25  0.00  0.75  0.01  0.00  0.00  0.70  0.00
  YS02001757CaochengTiaoxuchi    1.00   0.00  0.00  0.00  0.94  0.06  0.00  0.00  0.82  0.00
  YS02001759YS02001757    1.00   0.00  0.24  0.00  0.75  0.01  0.00  0.00  0.56  0.00
  YS02001762YS02001759    1.00   0.24  0.00  0.00  0.75  0.00  0.00  0.00  0.04  0.00
  YS02001765YS02001762    1.00   0.25  0.00  0.00  0.75  0.00  0.00  0.00  0.62  0.00
  YS02001767YS02001765    1.00   0.24  0.00  0.00  0.76  0.00  0.00  0.00  0.01  0.00
  YS02001770YS02001767    1.00   0.24  0.00  0.00  0.76  0.00  0.00  0.00  0.00  0.00
  YS02001774YS02001770    1.00   0.25  0.00  0.00  0.65  0.00  0.10  0.00  0.02  0.00
  YS02001779YS02001774    1.00   0.25  0.29  0.00  0.46  0.00  0.00  0.00  0.61  0.00
  YS02001783YS02001784    1.00   0.27  0.00  0.00  0.73  0.00  0.00  0.00  0.57  0.00
  YS02001784YS02001785    1.00   0.27  0.00  0.00  0.72  0.00  0.00  0.00  0.38  0.00
  YS02001786YS02001788    1.00   0.27  0.00  0.00  0.42  0.31  0.00  0.00  0.00  0.00
  YS02001788YS02001790    1.00   0.27  0.00  0.00  0.14  0.58  0.00  0.00  0.64  0.00
  YS02001790YS02001791    1.00   0.28  0.00  0.00  0.01  0.72  0.00  0.00  0.15  0.00
  YS02001791YS02001793    1.00   0.28  0.00  0.00  0.00  0.72  0.00  0.00  0.01  0.00
  YS02001793JiankangQianchi    1.00   0.00  0.28  0.00  0.68  0.04  0.00  0.00  0.78  0.00
  YS02001882YS02001884    1.00   0.26  0.00  0.00  0.74  0.00  0.00  0.00  0.00  0.00
  YS02001884YS02001887    1.00   0.25  0.01  0.00  0.74  0.00  0.00  0.00  0.00  0.00
  YS02001887YS02001890    1.00   0.24  0.00  0.00  0.75  0.00  0.01  0.00  0.00  0.00
  YS02001890YS02001895    1.00   0.25  0.02  0.00  0.74  0.00  0.00  0.00  0.00  0.00
  YS02001895YS02001898    1.00   0.26  0.00  0.00  0.73  0.00  0.01  0.00  0.00  0.00
  YS02001898YS02001901    1.00   0.27  0.00  0.00  0.73  0.00  0.00  0.00  0.01  0.00
  YS02001901YS02001904    1.00   0.27  0.00  0.00  0.73  0.00  0.00  0.00  0.00  0.00
  YS02001904YS02001907    1.00   0.24  0.02  0.00  0.73  0.00  0.00  0.00  0.00  0.00
  YS02001907YS02006553    1.00   0.24  0.01  0.00  0.75  0.00  0.00  0.00  0.01  0.00
  YS02001910YS02001907    1.00   0.24  0.00  0.00  0.74  0.00  0.00  0.01  0.03  0.00
  YS02001915YS02001910    1.00   0.24  0.00  0.00  0.74  0.02  0.00  0.00  0.02  0.00
  YS02001918YS02001915    1.00   0.24  0.02  0.00  0.74  0.00  0.00  0.00  0.73  0.00
  YS02001920YS02001918    1.00   0.25  0.01  0.00  0.74  0.00  0.00  0.00  0.00  0.00
  YS02001923YS02001920    1.00   0.25  0.00  0.00  0.75  0.00  0.00  0.00  0.78  0.00
  YS02001926YS02001923    1.00   0.24  0.01  0.00  0.08  0.00  0.67  0.00  0.00  0.00
  YS02001929YS02001926    1.00   0.24  0.00  0.00  0.76  0.00  0.00  0.00  0.82  0.00
  YS02006553YS02006556    1.00   0.25  0.00  0.00  0.75  0.00  0.00  0.00  0.02  0.00
  YS02006556YS02006558    1.00   0.24  0.00  0.00  0.75  0.00  0.00  0.00  0.00  0.00
  YS02006558YS02006561    1.00   0.27  0.00  0.00  0.08  0.65  0.00  0.00  0.18  0.00
  YS02006561YS02001783    1.00   0.27  0.00  0.00  0.18  0.55  0.00  0.00  0.70  0.00
  YS02163301YS02001633    1.00   0.24  0.02  0.00  0.74  0.00  0.00  0.00  0.00  0.00
  YS02163601YS02164001    1.00   0.25  0.01  0.00  0.75  0.00  0.00  0.00  0.01  0.00
  YS02164001YS02001641    1.00   0.25  0.01  0.00  0.75  0.00  0.00  0.00  0.00  0.00
  
  
  *************************
  Conduit Surcharge Summary
  *************************
  
  ----------------------------------------------------------------------------
                                                           Hours        Hours 
                         --------- Hours Full --------   Above Full   Capacity
  Conduit                Both Ends  Upstream  Dnstream   Normal Flow   Limited
  ----------------------------------------------------------------------------
  WS02003072WS02003073        0.01      0.01      0.01      0.97         0.01
  WS02004401WS02004402        0.01      0.01      0.01      0.01         0.01
  WS02004402WS02004403        0.01      0.01      0.01      0.02         0.01
  WS02004403WS02004404        0.01      0.01      0.02      0.01         0.01
  WS02004404WS02004405        0.01      0.02      0.01      2.79         0.01
  WS02004405WS02004406        0.01      0.01      0.01      0.59         0.01
  WS02006109WS02006110        0.71      0.71      1.49      0.76         0.01
  WS02006110WS02006113        0.01      0.01      1.48      0.01         0.01
  WS02006111WS02006112        0.01      0.01      1.59      0.01         0.01
  WS02006112WS02006115        0.01      0.01      0.77      0.01         0.01
  WS02006113WS02006111        0.01      0.01      0.01      0.01         0.01
  WS02006115WS02006116        0.01      0.01      0.01      0.01         0.01
  WS02006116WS02004401        0.01      0.01      0.01      0.02         0.01
  WS02006228WS02006109        1.45      1.49      1.46      1.70         1.44
  WS02006229WS02006228        1.44      1.47      1.44      1.58         1.43
  WS02006230WS02006229        1.51      1.56      1.52      3.15         1.51
  WS02006231WS02006230        0.70      0.70      0.79      2.79         0.01
  WS02006232WS02006231        0.76      0.76      1.51      0.79         0.01
  WS02006234WS02006232        1.43      1.43      1.51      0.78         0.77
  WS02006235WS02006234        0.92      0.93      1.48      2.54         0.01
  WS02006238WS02006235        1.49      1.49      1.51      0.01         0.01
  WS02006239WS02006238        1.49      1.50      1.50      1.41         1.27
  WS02006240WS02006239        1.39      1.39      1.39      1.40         1.22
  WS02006242WS02006240        1.39      1.39      1.43      1.51         0.01
  WS02006243WS02006242        1.39      1.39      1.40      0.01         0.02
  WS02006245WS02006243        1.39      1.39      1.39      0.69         0.77
  WS02006247WS02006245        1.39      1.39      1.39      2.42         1.38
  WS02006248WS02006247        1.38      1.38      1.39      0.01         0.02
  WS02006249WS02006248        1.38      1.38      1.38      2.36         0.01
  WS02006251WS02006249        1.38      1.38      1.38      1.46         1.35
  WS02006252WS02006251        1.50      1.50      1.52      1.50         0.01
  WS02006256WS02006235        2.61      2.63      5.70      1.03         0.01
  YS02001580YS02001583        0.49      0.49      0.54      0.01         0.01
  YS02001583YS02001586        0.49      0.49      0.62      0.01         0.01
  YS02001586YS02001590        0.62      0.62      0.68      0.01         0.01
  YS02001590YS02001593        0.68      0.68      0.70      0.73         0.01
  YS02001593YS02001596        0.69      0.69      0.77      0.01         0.01
  YS02001596YS02001600        0.81      0.81      0.90      0.01         0.01
  YS02001600YS02001601        0.95      0.95      1.26      0.01         0.01
  YS02001601YS02001602        1.13      1.13      1.32      0.91         0.01
  YS02001602YS02001605        1.07      1.07      1.13      2.05         0.01
  YS02001605YS02001607        1.03      1.07      1.03      1.20         1.03
  YS02001607YS02001610        0.64      0.64      0.67      0.01         0.01
  YS02001610YS02001613        0.64      0.64      0.67      0.01         0.01
  YS02001613YS02001616        0.60      0.60      0.64      0.01         0.01
  YS02001616YS02001619        0.59      0.59      0.60      0.01         0.01
  YS02001619YS02001622        0.59      0.59      0.59      0.72         0.57
  YS02001622YS02001625        0.59      0.59      0.74      0.01         0.01
  YS02001625YS02001629        0.54      0.54      0.74      0.01         0.01
  YS02001629YS02163301        0.74      0.74      0.74      0.19         0.18
  YS02001633YS02163601        0.76      0.76      0.78      0.35         0.36
  YS02001641YS02001644        0.67      0.70      0.67      1.37         0.67
  YS02001644YS02001647        0.49      0.49      0.67      0.03         0.01
  YS02001647YS02001649        0.49      0.49      0.59      0.01         0.01
  YS02001649YS02001757        0.59      0.59      0.65      0.28         0.25
  YS02001652YS02001649        0.44      0.44      0.59      0.01         0.01
  YS02001655YS02001652        0.27      0.27      0.42      0.01         0.01
  YS02001658YS02001655        0.11      0.11      0.27      0.01         0.01
  YS02001661YS02001658        0.01      0.01      0.11      0.01         0.01
  YS02001664YS02001661        0.01      0.01      0.02      0.01         0.01
  YS02001745YS02001748        0.01      0.01      0.02      0.01         0.01
  YS02001748YS02001751        0.08      0.08      0.16      0.01         0.01
  YS02001751YS02001754        0.16      0.16      0.32      0.01         0.01
  YS02001754YS02001757        0.36      0.36      0.65      0.01         0.01
  YS02001757CaochengTiaoxuchi        0.53      0.65      1.27      0.32         0.19
  YS02001759YS02001757        0.56      0.56      0.65      0.01         0.03
  YS02001762YS02001759        0.52      0.52      0.56      0.01         0.03
  YS02001765YS02001762        0.48      0.48      0.52      0.01         0.01
  YS02001767YS02001765        0.45      0.45      0.48      0.02         0.04
  YS02001770YS02001767        0.45      0.45      0.45      0.44         0.34
  YS02001774YS02001770        0.42      0.42      0.51      0.01         0.01
  YS02001779YS02001774        0.31      0.31      0.51      0.01         0.01
  YS02001783YS02001784        0.44      0.46      0.44      0.57         0.44
  YS02001784YS02001785        0.35      0.44      0.35      0.75         0.35
  YS02001786YS02001788        0.01      0.35      0.01      0.64         0.01
  YS02001790YS02001791        0.01      0.01      0.01      0.42         0.01
  YS02001793JiankangQianchi        0.01      0.01      4.55      0.01         0.01
  YS02001882YS02001884        0.41      0.41      0.42      0.01         0.01
  YS02001884YS02001887        0.44      0.44      0.45      0.01         0.01
  YS02001887YS02001890        0.46      0.46      0.47      0.09         0.01
  YS02001890YS02001895        0.40      0.40      0.48      0.01         0.01
  YS02001895YS02001898        0.39      0.39      0.40      0.01         0.01
  YS02001898YS02001901        0.40      0.40      0.44      0.01         0.01
  YS02001901YS02001904        0.43      0.43      0.44      0.01         0.01
  YS02001904YS02001907        0.43      0.43      0.63      0.01         0.01
  YS02001907YS02006553        0.77      0.77      0.81      0.01         0.01
  YS02001910YS02001907        0.48      0.48      0.62      0.01         0.01
  YS02001915YS02001910        0.41      0.41      0.48      0.01         0.01
  YS02001918YS02001915        0.33      0.33      0.41      0.01         0.01
  YS02001920YS02001918        0.33      0.33      0.35      0.01         0.01
  YS02001923YS02001920        0.30      0.30      0.35      0.01         0.01
  YS02001926YS02001923        0.02      0.02      0.04      0.01         0.01
  YS02001929YS02001926        0.01      0.01      0.04      0.01         0.01
  YS02006553YS02006556        0.55      0.55      0.64      0.01         0.01
  YS02006556YS02006558        0.59      0.59      0.65      0.01         0.01
  YS02006558YS02006561        0.36      0.54      0.36      0.71         0.36
  YS02006561YS02001783        0.31      0.31      0.46      0.01         0.01
  YS02163301YS02001633        0.74      0.74      0.77      0.01         0.01
  YS02163601YS02164001        0.71      0.71      0.78      0.03         0.01
  YS02164001YS02001641        0.70      0.71      0.70      0.66         0.56
  
  
  ***************
  Pumping Summary
  ***************
  
  ---------------------------------------------------------------------------------------------------------
                                                  Min       Avg       Max     Total     Power    % Time Off
                        Percent   Number of      Flow      Flow      Flow    Volume     Usage    Pump Curve
  Pump                 Utilized   Start-Ups       LPS       LPS       LPS  10^6 ltr     Kw-hr    Low   High
  ---------------------------------------------------------------------------------------------------------
  CC-R1                   16.75          19      0.00    683.00    683.00     3.295     60.04    0.0   25.2
  CC-R2                   19.87          19      0.00    683.00    683.00     3.908     69.87    0.0   45.8
  CC-S1                   24.98          15      0.00    200.00    200.00     1.439      8.64    0.0    0.0
  CC-S2                   25.91          16      0.00    200.00    200.00     1.493      9.07    0.0    0.0
  JK-R1                    5.72          16      0.00   1000.00   1000.00     1.649     16.41    0.0    0.0
  JK-R2                    2.60          14      0.00   1000.00   1000.00     0.749      5.89    0.0    0.0
  JK-S                    12.65          18      0.00    300.00    300.00     1.093     18.31    0.0    0.0
  

  Analysis begun on:  Thu Sep  7 18:05:26 2023
  Analysis ended on:  Thu Sep  7 18:05:37 2023
  Total elapsed time: 00:00:11