
  OWA STORM WATER MANAGEMENT MODEL - VERSION v5.2.3 (OWA 2023-06-06)
  ------------------------------------------------------------

  WARNING 04: minimum elevation drop used for Conduit WS02004404WS02004405
  WARNING 03: negative offset ignored for Link YS02001904YS02001907
  
  ****************
  Analysis Options
  ****************
  Flow Units ............... LPS
  Process Models:
    Rainfall/Runoff ........ YES
    RDII ................... NO
    Snowmelt ............... NO
    Groundwater ............ NO
    Flow Routing ........... YES
    Ponding Allowed ........ NO
    Water Quality .......... NO
  Infiltration Method ...... HORTON
  Flow Routing Method ...... DYNWAVE
  Surcharge Method ......... EXTRAN
  Starting Date ............ 08/28/2015 08:00:00
  Ending Date .............. 08/28/2015 16:00:00
  Antecedent Dry Days ...... 8.0
  Report Time Step ......... 00:01:00
  Wet Time Step ............ 00:01:00
  Dry Time Step ............ 00:01:00
  Routing Time Step ........ 30.00 sec
  Variable Time Step ....... YES
  Maximum Trials ........... 8
  Number of Threads ........ 2
  Head Tolerance ........... 0.001500 m
  
  
  **************************        Volume         Depth
  Runoff Quantity Continuity     hectare-m            mm
  **************************     ---------       -------
  Total Precipitation ......         1.680        50.640
  Evaporation Loss .........         0.000         0.000
  Infiltration Loss ........         0.098         2.944
  Surface Runoff ...........         1.549        46.712
  Final Storage ............         0.033         0.995
  Continuity Error (%) .....        -0.022
  
  
  **************************        Volume        Volume
  Flow Routing Continuity        hectare-m      10^6 ltr
  **************************     ---------     ---------
  Dry Weather Inflow .......         0.025         0.251
  Wet Weather Inflow .......         1.550        15.498
  Groundwater Inflow .......         0.000         0.000
  RDII Inflow ..............         0.000         0.000
  External Inflow ..........         0.083         0.834
  External Outflow .........         1.403        14.027
  Flooding Loss ............         0.349         3.491
  Evaporation Loss .........         0.000         0.000
  Exfiltration Loss ........         0.000         0.000
  Initial Stored Volume ....         0.243         2.431
  Final Stored Volume ......         0.182         1.818
  Continuity Error (%) .....        -1.698
  
  
  *************************
  Highest Continuity Errors
  *************************
  Node YS02001884 (4.88%)
  Node YS02001583 (-4.35%)
  Node WS02006256 (-3.76%)
  Node YS02001774 (1.28%)
  Node WS02006111 (-1.17%)
  
  
  ***************************
  Time-Step Critical Elements
  ***************************
  Link WS02006252WS02006251 (41.54%)
  Link WS02006238WS02006235 (19.48%)
  Link WS02004404WS02004405 (15.08%)
  Link WS02003066WSF200 (6.86%)
  Link YS02001791YS02001793 (4.60%)
  
  
  ********************************
  Highest Flow Instability Indexes
  ********************************
  Link WS02006113WS02006111 (29)
  Link WS02006256WS02006235 (19)
  Link WS02006238WS02006235 (17)
  Link WS02004404WS02004405 (16)
  Link WS02006252WS02006251 (13)
  
  
  *********************************
  Most Frequent Nonconverging Nodes
  *********************************
  Node CC-1 (10.01%)
  Node CC-2 (10.01%)
  Node JK-1 (10.01%)
  Node JK-2 (10.01%)
  Node WSC (10.01%)
  
  
  *************************
  Routing Time Step Summary
  *************************
  Minimum Time Step           :     0.02 sec
  Average Time Step           :     2.47 sec
  Maximum Time Step           :    30.00 sec
  % of Time in Steady State   :     0.00
  Average Iterations per Step :     3.11
  % of Steps Not Converging   :    10.01
  Time Step Frequencies       :
     30.000 - 13.228 sec      :     0.01 %
     13.228 -  5.833 sec      :    11.02 %
      5.833 -  2.572 sec      :    28.03 %
      2.572 -  1.134 sec      :    17.21 %
      1.134 -  0.500 sec      :    43.73 %
  
  
  ***************************
  Subcatchment Runoff Summary
  ***************************
  
  ------------------------------------------------------------------------------------------------------------------------------
                            Total      Total      Total      Total     Imperv       Perv      Total       Total     Peak  Runoff
                           Precip      Runon       Evap      Infil     Runoff     Runoff     Runoff      Runoff   Runoff   Coeff
  Subcatchment                 mm         mm         mm         mm         mm         mm         mm    10^6 ltr      LPS
  ------------------------------------------------------------------------------------------------------------------------------
  sub60                     50.64       0.00       0.00       1.75      43.36       4.33      47.69        0.63   463.96   0.942
  sub61                     50.64       0.00       0.00       2.54      40.90       6.07      46.97        0.86   644.49   0.927
  sub62                     50.64       0.00       0.00       1.16      45.30       2.89      48.19        1.32   902.71   0.952
  sub63                     50.64       0.00       0.00       4.75      34.98       9.94      44.93        1.02   725.78   0.887
  sub64                     50.64       0.00       0.00       2.39      41.84       5.21      47.04        1.13   733.19   0.929
  sub65                     50.64       0.00       0.00       2.07      42.80       4.51      47.32        1.30   818.32   0.934
  sub66                     50.64       0.00       0.00       5.90      34.88       8.78      43.66        2.04  1075.17   0.862
  sub67                     50.64       0.00       0.00       1.11      45.34       2.94      48.28        0.90   695.65   0.953
  sub68                     50.64       0.00       0.00       2.11      42.36       4.98      47.35        1.30   928.03   0.935
  sub69                     50.64       0.00       0.00       1.89      42.93       5.71      48.64        1.80  1088.67   0.961
  sub70                     50.64       0.00       0.00       6.33      33.26      10.89      44.14        1.28   602.23   0.872
  sub71                     50.64       0.00       0.00       1.20      45.26       2.85      48.11        1.26   791.16   0.950
  sub72                     50.64       0.00       0.00       1.07      45.69       2.48      48.16        0.66   384.79   0.951
  
  
  ******************
  Node Depth Summary
  ******************
  
  ---------------------------------------------------------------------------------
                                 Average  Maximum  Maximum  Time of Max    Reported
                                   Depth    Depth      HGL   Occurrence   Max Depth
  Node                 Type       Meters   Meters   Meters  days hr:min      Meters
  ---------------------------------------------------------------------------------
  WS02003060           JUNCTION     0.19     0.38     5.32     0  02:46        0.38
  WS02003066           JUNCTION     0.16     0.30     5.85     0  02:45        0.30
  WS02003067           JUNCTION     0.45     0.70     6.02     0  02:45        0.70
  WS02003069           JUNCTION     0.20     0.43     5.02     0  02:46        0.43
  WS02003072           JUNCTION     0.26     0.50     4.87     0  02:47        0.50
  WS02003073           JUNCTION     0.14     0.30     4.36     0  02:48        0.30
  WS02004401           JUNCTION     0.54     0.88     6.88     0  02:44        0.88
  WS02004402           JUNCTION     0.57     0.91     6.87     0  02:41        0.90
  WS02004403           JUNCTION     0.60     0.92     6.85     0  02:41        0.92
  WS02004404           JUNCTION     0.68     1.06     6.91     0  02:38        1.02
  WS02004405           JUNCTION     0.67     0.97     6.82     0  02:47        0.97
  WS02004406           JUNCTION     0.68     0.96     6.79     0  02:43        0.96
  WS02004407           JUNCTION     0.14     0.30     6.61     0  02:44        0.30
  WS02004409           JUNCTION     0.31     0.67     6.44     0  02:44        0.67
  WS02004410           JUNCTION     0.34     0.68     6.40     0  02:44        0.68
  WS02004411           JUNCTION     0.37     0.69     6.37     0  02:44        0.69
  WS02004412           JUNCTION     0.39     0.70     6.34     0  02:44        0.70
  WS02004413           JUNCTION     0.56     0.86     6.33     0  02:45        0.86
  WS02006109           JUNCTION     0.58     1.11     7.73     0  02:25        0.97
  WS02006110           JUNCTION     0.59     1.00     7.59     0  02:28        0.92
  WS02006111           JUNCTION     0.15     0.90     7.60     0  00:00        0.40
  WS02006112           JUNCTION     0.69     2.68     8.56     0  00:00        1.14
  WS02006113           JUNCTION     0.23     1.40     8.29     0  00:00        0.45
  WS02006115           JUNCTION     0.42     1.65     7.79     0  00:00        0.86
  WS02006116           JUNCTION     0.51     1.06     7.10     0  00:00        0.86
  WS02006228           JUNCTION     0.57     1.06     7.71     0  02:28        1.02
  WS02006229           JUNCTION     0.54     1.06     7.76     0  02:28        1.01
  WS02006230           JUNCTION     0.52     1.18     7.93     0  02:28        1.10
  WS02006231           JUNCTION     0.35     0.93     8.05     0  02:28        0.85
  WS02006232           JUNCTION     0.47     1.62     8.66     0  00:15        1.05
  WS02006234           JUNCTION     0.39     1.63     8.79     0  00:15        1.07
  WS02006235           JUNCTION     0.42     1.30     8.46     0  02:24        1.16
  WS02006238           JUNCTION     0.45     1.28     8.42     0  00:15        1.18
  WS02006239           JUNCTION     0.41     1.34     8.55     0  00:15        1.17
  WS02006240           JUNCTION     0.38     1.82     9.11     0  00:15        1.18
  WS02006242           JUNCTION     0.44     1.38     8.64     0  00:15        1.32
  WS02006243           JUNCTION     0.35     1.37     8.79     0  00:15        1.21
  WS02006245           JUNCTION     0.35     1.56     9.05     0  02:27        1.12
  WS02006247           JUNCTION     0.37     1.38     8.88     0  02:27        1.14
  WS02006248           JUNCTION     0.34     1.10     8.69     0  02:27        1.08
  WS02006249           JUNCTION     0.37     1.09     8.69     0  02:27        1.09
  WS02006251           JUNCTION     0.36     1.50     9.17     0  02:27        1.17
  WS02006252           JUNCTION     0.28     1.50     9.74     0  02:20        0.73
  WS02006256           JUNCTION     0.87     2.35     9.28     0  00:09        2.35
  WSF200               JUNCTION     0.13     0.29     5.53     0  02:45        0.29
  YS02001580           JUNCTION     0.09     1.05     9.59     0  02:16        0.77
  YS02001583           JUNCTION     0.12     1.14     9.64     0  02:16        0.82
  YS02001586           JUNCTION     0.21     1.13     9.30     0  02:16        1.13
  YS02001590           JUNCTION     0.31     1.40     9.26     0  02:16        1.37
  YS02001593           JUNCTION     0.25     1.33     9.19     0  02:16        1.28
  YS02001596           JUNCTION     0.34     1.69     9.10     0  02:16        1.65
  YS02001600           JUNCTION     0.43     1.87     9.00     0  02:16        1.86
  YS02001601           JUNCTION     0.62     2.06     8.90     0  02:15        2.06
  YS02001602           JUNCTION     0.53     1.87     8.77     0  02:15        1.87
  YS02001605           JUNCTION     0.49     1.78     8.68     0  02:15        1.77
  YS02001607           JUNCTION     0.46     1.68     8.53     0  02:16        1.64
  YS02001610           JUNCTION     0.50     1.68     8.48     0  02:15        1.68
  YS02001613           JUNCTION     0.46     1.70     8.54     0  02:15        1.65
  YS02001616           JUNCTION     0.39     1.61     8.52     0  02:16        1.59
  YS02001619           JUNCTION     0.37     1.61     8.54     0  02:16        1.58
  YS02001622           JUNCTION     0.36     1.59     8.50     0  02:16        1.56
  YS02001625           JUNCTION     0.60     1.78     8.38     0  02:19        1.78
  YS02001629           JUNCTION     0.49     1.85     8.40     0  02:16        1.85
  YS02001633           JUNCTION     0.56     2.00     8.46     0  02:22        2.00
  YS02001641           JUNCTION     0.53     1.95     8.39     0  02:23        1.93
  YS02001644           JUNCTION     0.52     1.92     8.35     0  02:22        1.92
  YS02001647           JUNCTION     0.30     1.73     8.34     0  02:23        1.70
  YS02001649           JUNCTION     0.34     1.93     8.32     0  02:23        1.88
  YS02001652           JUNCTION     0.22     1.79     8.38     0  02:24        1.74
  YS02001655           JUNCTION     0.16     1.67     8.52     0  02:22        1.54
  YS02001658           JUNCTION     0.12     1.62     8.76     0  02:22        1.29
  YS02001661           JUNCTION     0.15     1.19     8.59     0  02:24        1.07
  YS02001664           JUNCTION     0.07     0.50     8.43     0  02:23        0.40
  YS02001745           JUNCTION     0.07     0.70     8.22     0  02:24        0.69
  YS02001748           JUNCTION     0.11     1.59     8.66     0  02:23        1.11
  YS02001751           JUNCTION     0.13     1.54     8.41     0  02:23        1.29
  YS02001754           JUNCTION     0.18     1.73     8.34     0  02:23        1.55
  YS02001757           JUNCTION     0.34     1.97     8.23     0  02:23        1.88
  YS02001759           JUNCTION     0.28     1.95     8.31     0  02:23        1.88
  YS02001762           JUNCTION     0.27     1.95     8.35     0  02:23        1.87
  YS02001765           JUNCTION     0.25     1.93     8.38     0  02:23        1.84
  YS02001767           JUNCTION     0.25     1.90     8.39     0  02:23        1.84
  YS02001770           JUNCTION     0.27     1.94     8.43     0  02:23        1.89
  YS02001774           JUNCTION     0.33     1.99     8.41     0  02:23        1.96
  YS02001779           JUNCTION     0.16     1.68     8.37     0  02:21        1.68
  YS02001783           JUNCTION     0.28     1.23     7.38     0  02:24        1.23
  YS02001784           JUNCTION     0.29     1.12     7.19     0  02:23        1.11
  YS02001786           JUNCTION     0.24     0.88     6.91     0  02:20        0.87
  YS02001788           JUNCTION     0.18     0.62     6.60     0  02:22        0.62
  YS02001790           JUNCTION     0.21     0.72     6.37     0  02:24        0.72
  YS02001791           JUNCTION     0.13     0.44     5.91     0  02:24        0.43
  YS02001793           JUNCTION     0.07     0.30     5.13     0  02:24        0.29
  YS02001882           JUNCTION     0.34     1.83     8.55     0  02:18        1.64
  YS02001884           JUNCTION     0.42     1.90     8.52     0  02:18        1.74
  YS02001887           JUNCTION     0.49     1.90     8.44     0  02:18        1.81
  YS02001890           JUNCTION     0.52     1.81     8.32     0  02:18        1.81
  YS02001895           JUNCTION     0.31     1.57     8.32     0  02:20        1.56
  YS02001898           JUNCTION     0.31     1.57     8.31     0  02:20        1.56
  YS02001901           JUNCTION     0.42     1.68     8.29     0  02:20        1.67
  YS02001904           JUNCTION     0.40     1.64     8.27     0  02:20        1.63
  YS02001907           JUNCTION     0.70     1.96     8.25     0  02:20        1.96
  YS02001910           JUNCTION     0.51     1.98     8.49     0  02:21        1.94
  YS02001915           JUNCTION     0.34     2.00     8.72     0  02:18        1.85
  YS02001918           JUNCTION     0.18     1.81     8.88     0  02:21        1.65
  YS02001920           JUNCTION     0.26     2.10     9.11     0  02:21        1.79
  YS02001923           JUNCTION     0.13     2.01     9.27     0  02:21        1.56
  YS02001926           JUNCTION     0.17     1.90     9.35     0  02:21        1.29
  YS02001929           JUNCTION     0.09     1.78     9.47     0  02:21        0.99
  YS02006553           JUNCTION     0.70     1.98     8.26     0  02:24        1.97
  YS02006556           JUNCTION     0.67     1.96     8.27     0  02:24        1.95
  YS02006558           JUNCTION     0.72     2.00     8.27     0  02:23        1.99
  YS02006561           JUNCTION     0.17     0.90     7.56     0  02:25        0.89
  YS02163301           JUNCTION     0.51     1.91     8.43     0  02:22        1.91
  YS02163601           JUNCTION     0.59     2.02     8.42     0  02:23        2.01
  YS02164001           JUNCTION     0.52     1.94     8.40     0  02:23        1.92
  CC-1                 OUTFALL      0.00     0.00     0.00     0  00:00        0.00
  CC-2                 OUTFALL      0.00     0.00     0.00     0  00:00        0.00
  JK-1                 OUTFALL      0.00     0.00     0.00     0  00:00        0.00
  JK-2                 OUTFALL      0.00     0.00     0.00     0  00:00        0.00
  WSC                  OUTFALL      0.14     0.30     0.97     0  02:48        0.30
  CC-storage           STORAGE      0.69     1.36     6.86     0  02:46        1.36
  JK-storage           STORAGE      1.44     4.21     5.01     0  02:24        4.15
  
  
  *******************
  Node Inflow Summary
  *******************
  
  -------------------------------------------------------------------------------------------------
                                  Maximum  Maximum                  Lateral       Total        Flow
                                  Lateral    Total  Time of Max      Inflow      Inflow     Balance
                                   Inflow   Inflow   Occurrence      Volume      Volume       Error
  Node                 Type           LPS      LPS  days hr:min    10^6 ltr    10^6 ltr     Percent
  -------------------------------------------------------------------------------------------------
  WS02003060           JUNCTION     16.53   557.10     0  02:46       0.476        3.73       0.067
  WS02003066           JUNCTION      0.00   540.14     0  02:45           0        3.26       0.043
  WS02003067           JUNCTION      0.00   540.05     0  02:45           0        3.26       0.129
  WS02003069           JUNCTION      0.32   557.08     0  02:46     0.00922        3.74       0.107
  WS02003072           JUNCTION      0.00   556.78     0  02:47           0        3.73       0.187
  WS02003073           JUNCTION      1.82   558.45     0  02:47      0.0524        3.78       0.152
  WS02004401           JUNCTION      0.00  1677.78     0  00:00           0        3.37       0.343
  WS02004402           JUNCTION      0.00  1171.33     0  00:01           0        3.36       0.336
  WS02004403           JUNCTION      0.00   884.75     0  00:01           0        3.34       0.326
  WS02004404           JUNCTION      0.16   832.59     0  00:01     0.00467        3.34       0.197
  WS02004405           JUNCTION      0.04   776.49     0  00:01      0.0011        3.33       0.337
  WS02004406           JUNCTION      0.00   711.76     0  00:02           0        3.32       0.660
  WS02004407           JUNCTION      0.00   541.70     0  02:44           0         3.3       0.035
  WS02004409           JUNCTION      0.00   541.20     0  02:44           0         3.3       0.084
  WS02004410           JUNCTION      0.00   540.54     0  02:44           0        3.29       0.138
  WS02004411           JUNCTION      0.00   540.39     0  02:44           0        3.29       0.178
  WS02004412           JUNCTION      0.00   540.17     0  02:44           0        3.28       0.231
  WS02004413           JUNCTION      0.00   540.47     0  02:44           0        3.28       0.422
  WS02006109           JUNCTION      1.23  1308.01     0  00:00      0.0354         3.3       0.277
  WS02006110           JUNCTION      0.00   541.57     0  02:28           0        3.27      -1.091
  WS02006111           JUNCTION      0.00  1176.04     0  00:00           0         3.3      -1.156
  WS02006112           JUNCTION      0.00  2307.30     0  00:00           0        3.34      -0.019
  WS02006113           JUNCTION      0.00   555.60     0  02:28           0        3.26      -1.507
  WS02006115           JUNCTION      0.00   899.27     0  00:00           0        3.31      -0.964
  WS02006116           JUNCTION      0.00  1098.16     0  00:01           0        3.35      -0.689
  WS02006228           JUNCTION      0.00   540.22     0  02:28           0        3.24       0.119
  WS02006229           JUNCTION      0.00   540.02     0  02:28           0        3.23       0.279
  WS02006230           JUNCTION     10.28   540.30     0  02:28       0.296        3.22       0.063
  WS02006231           JUNCTION      0.00   530.86     0  02:28           0        2.91       0.012
  WS02006232           JUNCTION      0.00   530.87     0  02:28           0        2.92       0.284
  WS02006234           JUNCTION      0.00   531.03     0  02:27           0         2.9      -0.475
  WS02006235           JUNCTION      0.00   532.18     0  02:28           0        3.01       0.465
  WS02006238           JUNCTION      0.00   421.03     0  03:00           0         2.4      -0.228
  WS02006239           JUNCTION      0.00   421.01     0  03:00           0        2.32      -0.160
  WS02006240           JUNCTION      0.00   417.80     0  03:00           0        2.29      -0.006
  WS02006242           JUNCTION      0.00   417.36     0  03:00           0        2.29       0.095
  WS02006243           JUNCTION      0.00   415.93     0  03:00           0        2.28      -0.139
  WS02006245           JUNCTION      0.00   415.63     0  03:00           0         2.3       0.520
  WS02006247           JUNCTION      0.00   416.84     0  03:00           0         2.3      -0.049
  WS02006248           JUNCTION      0.00   417.93     0  03:00           0        2.29      -0.089
  WS02006249           JUNCTION      0.00   824.67     0  00:05           0        2.45       0.722
  WS02006251           JUNCTION      0.08   460.09     0  00:05     0.00222        2.43      -0.719
  WS02006252           JUNCTION      0.00   400.00     0  00:05           0        2.42      -0.659
  WS02006256           JUNCTION      0.00   300.00     0  00:15           0       0.881      -3.628
  WSF200               JUNCTION      0.00   540.21     0  02:45           0        3.26       0.015
  YS02001580           JUNCTION      0.00    88.20     0  02:16           0     0.00401      -0.474
  YS02001583           JUNCTION      0.00   144.36     0  02:16           0      0.0152      -4.173
  YS02001586           JUNCTION    602.23   602.30     0  02:26        1.28        1.29       0.084
  YS02001590           JUNCTION      0.00   317.89     0  02:33           0         1.1      -0.043
  YS02001593           JUNCTION      0.00   318.01     0  02:30           0         1.1       0.004
  YS02001596           JUNCTION      0.00   317.95     0  02:38           0         1.1      -0.007
  YS02001600           JUNCTION      0.00   317.96     0  02:31           0         1.1       0.010
  YS02001601           JUNCTION   1088.67  1406.19     0  02:26         1.8         2.9       0.016
  YS02001602           JUNCTION      0.00   505.66     0  02:15           0        1.99       0.020
  YS02001605           JUNCTION      0.00   505.97     0  02:15           0        1.91       0.029
  YS02001607           JUNCTION      0.00   506.41     0  02:15           0        1.91       0.100
  YS02001610           JUNCTION      0.00   536.53     0  02:26           0        1.98       0.110
  YS02001613           JUNCTION      0.00   515.43     0  02:15           0        1.68       0.091
  YS02001616           JUNCTION      0.00   515.52     0  02:15           0        1.68       0.020
  YS02001619           JUNCTION   1075.17  1075.17     0  02:26        2.04        3.65      -0.008
  YS02001622           JUNCTION      0.00   932.27     0  02:19           0        3.58      -0.002
  YS02001625           JUNCTION      0.00  1144.60     0  02:26           0        3.65       0.246
  YS02001629           JUNCTION      0.00   932.09     0  02:19           0        3.11       0.029
  YS02001633           JUNCTION    818.52  1387.09     0  02:19        1.31        4.33       0.083
  YS02001641           JUNCTION      0.00  1386.81     0  02:19           0        4.25       0.066
  YS02001644           JUNCTION    733.23  1797.14     0  02:19        1.13        5.38       0.063
  YS02001647           JUNCTION      0.00  1797.06     0  02:19           0        5.27       0.007
  YS02001649           JUNCTION      0.00  2062.75     0  02:19           0         6.3       0.004
  YS02001652           JUNCTION      0.00   773.62     0  02:24           0        1.02      -0.086
  YS02001655           JUNCTION      0.15   772.40     0  02:24     0.00443        1.02       0.071
  YS02001658           JUNCTION      0.00   770.51     0  02:24           0        1.02      -0.041
  YS02001661           JUNCTION      0.00   868.95     0  02:24           0        1.02       0.026
  YS02001664           JUNCTION    725.78   725.78     0  02:25        1.02        1.02      -0.007
  YS02001745           JUNCTION    463.97   463.97     0  02:25       0.627       0.627       0.212
  YS02001748           JUNCTION      0.04   567.62     0  02:23      0.0013       0.627      -0.290
  YS02001751           JUNCTION      0.01   478.11     0  02:24    0.000317       0.631       0.093
  YS02001754           JUNCTION      0.26   479.02     0  02:24     0.00749       0.641      -0.184
  YS02001757           JUNCTION      0.00  3479.11     0  02:24           0        9.12       0.061
  YS02001759           JUNCTION    644.53  1384.54     0  02:25       0.863        2.18      -0.004
  YS02001762           JUNCTION      0.00   796.70     0  02:27           0        1.32       0.011
  YS02001765           JUNCTION      0.00   796.37     0  02:27           0        1.32       0.007
  YS02001767           JUNCTION      0.54   796.00     0  02:27      0.0154        1.32      -0.000
  YS02001770           JUNCTION    902.86   902.86     0  02:25        1.33        1.37       0.000
  YS02001774           JUNCTION      0.00   260.06     0  02:21           0      0.0826       1.294
  YS02001779           JUNCTION      0.01   260.98     0  02:21    0.000144      0.0412      -1.445
  YS02001783           JUNCTION      0.00  1160.63     0  02:24           0         3.4       0.006
  YS02001784           JUNCTION      1.06  1161.54     0  02:23      0.0305        3.43       0.014
  YS02001786           JUNCTION      0.06  1161.82     0  02:24     0.00162        3.43       0.019
  YS02001788           JUNCTION      0.07  1161.89     0  02:25     0.00204        3.44       0.009
  YS02001790           JUNCTION      0.15  1173.06     0  02:24     0.00446        3.44       0.020
  YS02001791           JUNCTION      0.00  1291.22     0  02:24           0        3.44      -0.020
  YS02001793           JUNCTION      0.00  1246.30     0  02:23           0        3.44       0.006
  YS02001882           JUNCTION      0.00    45.99     0  02:17           0      0.0128       4.553
  YS02001884           JUNCTION      0.00    76.89     0  02:17           0      0.0483       5.128
  YS02001887           JUNCTION    696.10   696.10     0  02:25       0.911       0.944       0.467
  YS02001890           JUNCTION      0.00   697.23     0  02:25           0       0.904       0.560
  YS02001895           JUNCTION      0.00   515.91     0  02:27           0        0.86       0.162
  YS02001898           JUNCTION      0.00   515.94     0  02:27           0       0.859       0.025
  YS02001901           JUNCTION      0.00   515.93     0  02:27           0       0.862       0.374
  YS02001904           JUNCTION      0.00   515.98     0  02:27           0       0.865       0.304
  YS02001907           JUNCTION      0.00  1732.60     0  02:25           0        2.86       0.609
  YS02001910           JUNCTION      0.00  1219.53     0  02:25           0           2       0.351
  YS02001915           JUNCTION    791.18  1219.40     0  02:25        1.26        2.04       0.078
  YS02001918           JUNCTION      0.00   444.07     0  02:21           0       0.804       0.012
  YS02001920           JUNCTION      2.87   443.18     0  02:21      0.0827       0.789       0.141
  YS02001923           JUNCTION      0.04   414.70     0  02:25     0.00109       0.691      -0.032
  YS02001926           JUNCTION      0.05   413.44     0  02:24      0.0015       0.672       0.024
  YS02001929           JUNCTION    384.79   384.79     0  02:26       0.662       0.663      -0.070
  YS02006553           JUNCTION      0.00   799.58     0  02:36           0        2.12       0.555
  YS02006556           JUNCTION      0.00   799.81     0  02:36           0        2.13       0.368
  YS02006558           JUNCTION    928.91  1161.78     0  02:25        1.33        3.43       0.097
  YS02006561           JUNCTION      0.00  1160.65     0  02:24           0         3.4       0.001
  YS02163301           JUNCTION      0.00   932.38     0  02:19           0         3.1       0.048
  YS02163601           JUNCTION      0.11  1387.21     0  02:19     0.00317        4.25       0.119
  YS02164001           JUNCTION      0.00  1387.38     0  02:19           0        4.25       0.051
  CC-1                 OUTFALL       0.00   683.00     0  01:45           0        2.76       0.000
  CC-2                 OUTFALL       0.00   683.00     0  00:15           0         4.8       0.000
  JK-1                 OUTFALL       0.00  1000.00     0  00:05           0        1.54       0.000
  JK-2                 OUTFALL       0.00  1000.00     0  00:05           0        1.15       0.000
  WSC                  OUTFALL       0.00   558.30     0  02:48           0        3.77       0.000
  CC-storage           STORAGE       0.00  3478.55     0  02:24           0        11.3      -0.267
  JK-storage           STORAGE       0.00  1246.49     0  02:23           0        3.59      -0.479
  
  
  **********************
  Node Surcharge Summary
  **********************
  
  Surcharging occurs when water rises above the top of the highest conduit.
  ---------------------------------------------------------------------
                                               Max. Height   Min. Depth
                                   Hours       Above Crown    Below Rim
  Node                 Type      Surcharged         Meters       Meters
  ---------------------------------------------------------------------
  WS02004404           JUNCTION        0.06          0.061        2.719
  WS02006109           JUNCTION        1.03          0.291        1.529
  WS02006110           JUNCTION        0.53          0.091        1.759
  WS02006111           JUNCTION        0.01          0.087        1.783
  WS02006112           JUNCTION        0.57          1.680        0.000
  WS02006113           JUNCTION        0.01          0.600        1.330
  WS02006115           JUNCTION        0.01          0.642        1.608
  WS02006116           JUNCTION        0.01          0.000        2.290
  WS02006228           JUNCTION        1.02          0.233        1.967
  WS02006229           JUNCTION        1.03          0.263        2.187
  WS02006230           JUNCTION        0.53          0.102        1.468
  WS02006231           JUNCTION        0.55          0.215        1.315
  WS02006232           JUNCTION        1.06          0.919        0.561
  WS02006234           JUNCTION        0.63          0.910        0.330
  WS02006235           JUNCTION        1.03          0.588        0.702
  WS02006238           JUNCTION        1.04          0.557        0.873
  WS02006239           JUNCTION        1.02          0.600        0.690
  WS02006240           JUNCTION        1.02          1.112        0.278
  WS02006242           JUNCTION        1.07          0.645        0.175
  WS02006243           JUNCTION        1.00          0.659        0.111
  WS02006245           JUNCTION        0.99          0.850        0.000
  WS02006247           JUNCTION        0.99          0.674        0.086
  WS02006248           JUNCTION        0.97          0.380        0.000
  WS02006249           JUNCTION        0.97          0.390        0.000
  WS02006251           JUNCTION        0.55          0.471        0.709
  WS02006252           JUNCTION        1.29          1.100        0.000
  WS02006256           JUNCTION        6.31          2.050        0.000
  YS02001580           JUNCTION        0.45          0.450        0.000
  YS02001583           JUNCTION        0.46          0.500        0.000
  YS02001586           JUNCTION        0.55          0.510        0.000
  YS02001590           JUNCTION        0.62          0.750        0.000
  YS02001593           JUNCTION        0.62          0.706        0.134
  YS02001596           JUNCTION        0.72          0.955        0.115
  YS02001600           JUNCTION        0.86          1.190        0.000
  YS02001601           JUNCTION        1.19          1.440        0.000
  YS02001602           JUNCTION        1.08          1.270        0.000
  YS02001605           JUNCTION        1.03          1.180        0.000
  YS02001607           JUNCTION        0.57          0.680        0.000
  YS02001610           JUNCTION        0.60          0.680        0.000
  YS02001613           JUNCTION        0.56          0.700        0.000
  YS02001616           JUNCTION        0.53          0.610        0.000
  YS02001619           JUNCTION        0.52          0.610        0.000
  YS02001622           JUNCTION        0.52          0.593        0.027
  YS02001625           JUNCTION        0.68          0.780        0.000
  YS02001629           JUNCTION        0.47          0.470        0.000
  YS02001633           JUNCTION        0.69          0.985        0.075
  YS02001641           JUNCTION        0.60          0.950        0.150
  YS02001644           JUNCTION        0.56          0.920        0.000
  YS02001647           JUNCTION        0.37          0.735        0.165
  YS02001649           JUNCTION        0.43          0.927        0.123
  YS02001652           JUNCTION        0.30          0.758        0.372
  YS02001655           JUNCTION        0.21          0.669        0.531
  YS02001658           JUNCTION        0.11          0.620        0.680
  YS02001661           JUNCTION        0.01          0.120        1.270
  YS02001748           JUNCTION        0.03          0.507        0.683
  YS02001751           JUNCTION        0.14          0.536        0.664
  YS02001754           JUNCTION        0.22          0.685        0.465
  YS02001757           JUNCTION        0.46          0.973        0.237
  YS02001759           JUNCTION        0.38          0.946        0.264
  YS02001762           JUNCTION        0.36          0.955        0.195
  YS02001765           JUNCTION        0.33          0.928        0.172
  YS02001767           JUNCTION        0.32          0.905        0.125
  YS02001770           JUNCTION        0.30          0.907        0.013
  YS02001774           JUNCTION        0.35          0.987        0.063
  YS02001779           JUNCTION        0.23          0.680        0.000
  YS02001783           JUNCTION        0.42          0.435        1.165
  YS02001784           JUNCTION        0.40          0.320        1.170
  YS02001786           JUNCTION        0.31          0.077        1.353
  YS02001882           JUNCTION        0.37          0.830        0.000
  YS02001884           JUNCTION        0.39          0.841        0.029
  YS02001887           JUNCTION        0.41          0.853        0.097
  YS02001890           JUNCTION        0.43          0.760        0.000
  YS02001895           JUNCTION        0.36          0.568        0.182
  YS02001898           JUNCTION        0.36          0.541        0.199
  YS02001901           JUNCTION        0.40          0.680        0.190
  YS02001904           JUNCTION        0.39          0.638        0.212
  YS02001907           JUNCTION        0.63          0.950        0.000
  YS02001910           JUNCTION        0.45          0.981        0.119
  YS02001915           JUNCTION        0.37          1.000        0.000
  YS02001918           JUNCTION        0.30          0.810        0.000
  YS02001920           JUNCTION        0.31          1.098        0.042
  YS02001923           JUNCTION        0.03          0.796        0.024
  YS02001926           JUNCTION        0.04          0.900        0.000
  YS02001929           JUNCTION        0.01          0.780        0.000
  YS02006553           JUNCTION        0.64          0.976        0.214
  YS02006556           JUNCTION        0.54          0.916        0.434
  YS02006558           JUNCTION        0.52          0.900        0.500
  YS02006561           JUNCTION        0.26          0.095        1.055
  YS02163301           JUNCTION        0.67          0.913        0.117
  YS02163601           JUNCTION        0.71          1.025        0.055
  YS02164001           JUNCTION        0.61          0.942        0.158
  
  
  *********************
  Node Flooding Summary
  *********************
  
  Flooding refers to all water that overflows a node, whether it ponds or not.
  --------------------------------------------------------------------------
                                                             Total   Maximum
                                 Maximum   Time of Max       Flood    Ponded
                        Hours       Rate    Occurrence      Volume     Depth
  Node                 Flooded       LPS   days hr:min    10^6 ltr    Meters
  --------------------------------------------------------------------------
  WS02006112              0.01   1547.89      0  00:00       0.047     0.000
  WS02006245              0.01     64.12      0  02:27       0.000     0.000
  WS02006248              0.01     19.30      0  02:27       0.000     0.000
  WS02006249              0.55    127.62      0  02:27       0.139     0.000
  WS02006252              0.01    118.32      0  02:20       0.000     0.000
  WS02006256              0.81    285.70      0  05:20       0.279     0.000
  YS02001580              0.01     75.41      0  02:16       0.000     0.000
  YS02001583              0.01     91.93      0  02:16       0.000     0.000
  YS02001586              0.34    284.83      0  02:26       0.175     0.000
  YS02001590              0.01      3.37      0  02:16       0.000     0.000
  YS02001600              0.01      0.96      0  02:16       0.000     0.000
  YS02001601              0.49   1008.37      0  02:26       0.914     0.000
  YS02001602              0.37     62.02      0  02:28       0.074     0.000
  YS02001605              0.01      3.64      0  02:15       0.000     0.000
  YS02001607              0.01     20.32      0  02:16       0.000     0.000
  YS02001610              0.32    536.51      0  02:26       0.362     0.000
  YS02001613              0.01      7.35      0  02:15       0.000     0.000
  YS02001616              0.01     45.64      0  02:16       0.000     0.000
  YS02001619              0.01     12.38      0  02:16       0.000     0.000
  YS02001625              0.28   1144.53      0  02:26       0.607     0.000
  YS02001629              0.07    141.44      0  02:24       0.021     0.000
  YS02001644              0.09    484.36      0  02:24       0.094     0.000
  YS02001779              0.08    186.34      0  02:21       0.025     0.000
  YS02001882              0.01      6.25      0  02:18       0.000     0.000
  YS02001890              0.12    184.30      0  02:25       0.038     0.000
  YS02001907              0.25   1502.22      0  02:25       0.735     0.000
  YS02001915              0.01     86.64      0  02:18       0.000     0.000
  YS02001918              0.01     93.86      0  02:21       0.001     0.000
  YS02001926              0.01     17.09      0  02:21       0.000     0.000
  YS02001929              0.01    261.07      0  02:21       0.001     0.000
  
  
  **********************
  Storage Volume Summary
  **********************
  
  ------------------------------------------------------------------------------------------------
                         Average    Avg   Evap  Exfil     Maximum    Max    Time of Max    Maximum
                          Volume   Pcnt   Pcnt   Pcnt      Volume   Pcnt     Occurrence    Outflow
  Storage Unit           1000 m³   Full   Loss   Loss     1000 m³   Full    days hr:min        LPS
  ------------------------------------------------------------------------------------------------
  CC-storage               1.921   30.0    0.0    0.0       3.785   59.0       0  02:46    1766.00
  JK-storage               0.072   24.8    0.0    0.0       0.212   72.7       0  02:24    2000.00
  
  
  ***********************
  Outfall Loading Summary
  ***********************
  
  -----------------------------------------------------------
                         Flow       Avg       Max       Total
                         Freq      Flow      Flow      Volume
  Outfall Node           Pcnt       LPS       LPS    10^6 ltr
  -----------------------------------------------------------
  CC-1                  31.33    683.00    683.00       2.755
  CC-2                  41.93    683.00    683.00       4.803
  JK-1                   8.87   1000.00   1000.00       1.544
  JK-2                   9.84   1000.00   1000.00       1.150
  WSC                   99.99    165.56    558.30       3.774
  -----------------------------------------------------------
  System                38.39   3531.56   3922.58      14.027
  
  
  ********************
  Link Flow Summary
  ********************
  
  -----------------------------------------------------------------------------
                                 Maximum  Time of Max   Maximum    Max/    Max/
                                  |Flow|   Occurrence   |Veloc|    Full    Full
  Link                 Type          LPS  days hr:min     m/sec    Flow   Depth
  -----------------------------------------------------------------------------
  1                    CONDUIT    558.30     0  02:48      2.83    0.19    0.30
  WS02003060WS02003069 CONDUIT    556.76     0  02:46      1.64    0.22    0.34
  WS02003066WSF200     CONDUIT    540.21     0  02:45      2.86    0.09    0.22
  WS02003067WS02003066 CONDUIT    540.14     0  02:45      1.21    0.17    0.42
  WS02003069WS02003072 CONDUIT    556.78     0  02:47      1.37    0.27    0.39
  WS02003072WS02003073 CONDUIT    556.63     0  02:47      1.44    1.20    0.37
  WS02004401WS02004402 CONDUIT   1171.33     0  00:01      2.51    1.41    0.89
  WS02004402WS02004403 CONDUIT    884.75     0  00:01      2.16    1.27    0.91
  WS02004403WS02004404 CONDUIT    832.43     0  00:01      1.96    0.60    0.96
  WS02004404WS02004405 CONDUIT    776.45     0  00:01      2.26    7.61    0.98
  WS02004405WS02004406 CONDUIT    711.76     0  00:02      2.15    1.40    0.96
  WS02004406WS02004407 CONDUIT    541.70     0  02:44      1.04    0.24    0.63
  WS02004407WS02004409 CONDUIT    541.20     0  02:44      1.95    0.19    0.48
  WS02004409WS02004410 CONDUIT    540.54     0  02:44      1.31    0.70    0.68
  WS02004410WS02004411 CONDUIT    540.39     0  02:44      1.19    0.74    0.69
  WS02004411WS02004412 CONDUIT    540.17     0  02:44      1.08    0.77    0.70
  WS02004412WS02004413 CONDUIT    540.47     0  02:44      1.10    0.36    0.78
  WS02004413WS02003067 CONDUIT    540.05     0  02:45      1.11    0.23    0.59
  WS02006109WS02006110 CONDUIT   1306.78     0  00:00      3.14    2.51    1.00
  WS02006110WS02006113 CONDUIT    555.60     0  02:28      1.33    0.51    1.00
  WS02006111WS02006112 CONDUIT   2307.30     0  00:00      9.18    1.10    0.91
  WS02006112WS02006115 CONDUIT    899.27     0  00:00      1.16    0.53    1.00
  WS02006113WS02006111 CONDUIT   1176.04     0  00:00      2.46    1.41    1.00
  WS02006115WS02006116 CONDUIT   1098.16     0  00:01      1.72    1.41    1.00
  WS02006116WS02004401 CONDUIT   1677.78     0  00:00      2.92    2.31    0.87
  WS02006228WS02006109 CONDUIT    540.26     0  02:28      1.40    2.36    1.00
  WS02006229WS02006228 CONDUIT    540.22     0  02:28      1.24    1.79    1.00
  WS02006230WS02006229 CONDUIT    540.02     0  02:28      1.40   12.02    1.00
  WS02006231WS02006230 CONDUIT    530.02     0  02:28      1.48    8.04    1.00
  WS02006232WS02006231 CONDUIT    530.86     0  02:28      1.43    1.11    1.00
  WS02006234WS02006232 CONDUIT    530.87     0  02:28      1.38    1.07    1.00
  WS02006235WS02006234 CONDUIT    531.03     0  02:27      1.38    5.60    1.00
  WS02006238WS02006235 CONDUIT    422.40     0  03:00      1.67    0.94    1.00
  WS02006239WS02006238 CONDUIT    421.03     0  03:00      1.27    1.35    1.00
  WS02006240WS02006239 CONDUIT    421.01     0  03:00      1.33    1.32    1.00
  WS02006242WS02006240 CONDUIT    417.80     0  03:00      1.17    1.66    1.00
  WS02006243WS02006242 CONDUIT    417.36     0  03:00      1.45    0.89    1.00
  WS02006245WS02006243 CONDUIT    415.93     0  03:00      1.46    1.23    1.00
  WS02006247WS02006245 CONDUIT    415.63     0  03:00      1.42    3.30    1.00
  WS02006248WS02006247 CONDUIT    416.84     0  03:00      1.53    0.91    1.00
  WS02006249WS02006248 CONDUIT    417.93     0  03:00      1.54    2.29    1.00
  WS02006251WS02006249 CONDUIT    824.67     0  00:05      2.86    2.38    1.00
  WS02006252WS02006251 CONDUIT    460.01     0  00:05     17.00    1.69    1.00
  WS02006256WS02006235 CONDUIT    286.86     0  04:20      4.21    3.04    1.00
  WSF200WS02003060     CONDUIT    540.57     0  02:46      2.07    0.12    0.28
  YS02001580YS02001583 CONDUIT     88.20     0  02:16      0.60    0.34    1.00
  YS02001583YS02001586 CONDUIT    144.36     0  02:16      0.61    0.22    1.00
  YS02001586YS02001590 CONDUIT    317.89     0  02:33      1.25    0.56    1.00
  YS02001590YS02001593 CONDUIT    318.01     0  02:30      1.12    2.00    1.00
  YS02001593YS02001596 CONDUIT    317.95     0  02:38      1.76    0.50    1.00
  YS02001596YS02001600 CONDUIT    317.96     0  02:31      1.25    0.62    1.00
  YS02001600YS02001601 CONDUIT    317.82     0  02:30      1.12    0.55    1.00
  YS02001601YS02001602 CONDUIT    505.66     0  02:15      1.79    1.83    1.00
  YS02001602YS02001605 CONDUIT    505.97     0  02:15      1.79   10.71    1.00
  YS02001605YS02001607 CONDUIT    506.41     0  02:15      1.79    2.78    1.00
  YS02001607YS02001610 CONDUIT    512.26     0  02:15      0.65    0.49    1.00
  YS02001610YS02001613 CONDUIT    515.43     0  02:15      0.66    0.59    1.00
  YS02001613YS02001616 CONDUIT    515.52     0  02:15      0.66    0.44    1.00
  YS02001616YS02001619 CONDUIT    508.61     0  02:15      0.67    0.88    1.00
  YS02001619YS02001622 CONDUIT    932.27     0  02:19      1.19    1.37    1.00
  YS02001622YS02001625 CONDUIT    932.05     0  02:19      1.19    0.50    1.00
  YS02001625YS02001629 CONDUIT    932.09     0  02:19      1.19    0.44    1.00
  YS02001629YS02163301 CONDUIT    932.38     0  02:19      1.19    1.15    1.00
  YS02001633YS02163601 CONDUIT   1387.10     0  02:19      1.77    1.46    1.00
  YS02001641YS02001644 CONDUIT   1386.71     0  02:19      1.77    4.48    1.00
  YS02001644YS02001647 CONDUIT   1797.06     0  02:19      2.29    1.06    1.00
  YS02001647YS02001649 CONDUIT   1813.69     0  02:20      2.35    0.96    1.00
  YS02001649YS02001757 CONDUIT   2027.34     0  02:19      2.59    1.23    1.00
  YS02001652YS02001649 CONDUIT    775.23     0  02:24      0.99    0.38    1.00
  YS02001655YS02001652 CONDUIT    773.62     0  02:24      1.27    0.38    1.00
  YS02001658YS02001655 CONDUIT    772.25     0  02:24      1.88    0.33    1.00
  YS02001661YS02001658 CONDUIT    770.51     0  02:24      2.31    0.30    1.00
  YS02001664YS02001661 CONDUIT    868.95     0  02:24      2.31    0.27    0.73
  YS02001745YS02001748 CONDUIT    567.57     0  02:23      2.17    0.22    0.85
  YS02001748YS02001751 CONDUIT    478.10     0  02:24      1.69    0.24    1.00
  YS02001751YS02001754 CONDUIT    478.76     0  02:24      1.42    0.23    1.00
  YS02001754YS02001757 CONDUIT    478.65     0  02:24      0.61    0.19    1.00
  YS02001757CaochengTiaoxuchi CONDUIT   3478.55     0  02:24      4.55    1.51    1.00
  YS02001759YS02001757 CONDUIT   1384.01     0  02:25      1.76    0.98    1.00
  YS02001762YS02001759 CONDUIT    796.28     0  02:27      1.01    0.92    1.00
  YS02001765YS02001762 CONDUIT    796.70     0  02:27      1.01    0.75    1.00
  YS02001767YS02001765 CONDUIT    796.37     0  02:27      1.01    1.00    1.00
  YS02001770YS02001767 CONDUIT    795.46     0  02:27      1.01    3.15    1.00
  YS02001774YS02001770 CONDUIT    260.06     0  02:21      0.33    0.17    1.00
  YS02001779YS02001774 CONDUIT    260.97     0  02:21      0.33    0.13    1.00
  YS02001783YS02001784 CONDUIT   1160.48     0  02:23      2.31    1.60    1.00
  YS02001784YS02001785 CONDUIT   1161.77     0  02:24      2.31    2.70    1.00
  YS02001786YS02001788 CONDUIT   1161.82     0  02:25      2.48    2.24    0.89
  YS02001788YS02001790 CONDUIT   1172.91     0  02:24      2.71    0.86    0.84
  YS02001790YS02001791 CONDUIT   1291.22     0  02:24      3.44    1.40    0.70
  YS02001791YS02001793 CONDUIT   1246.30     0  02:23      6.78    0.54    0.45
  YS02001793JiankangQianchi CONDUIT   1246.49     0  02:23      2.50    0.10    0.65
  YS02001882YS02001884 CONDUIT     45.99     0  02:17      0.09    0.05    1.00
  YS02001884YS02001887 CONDUIT     76.89     0  02:17      0.10    0.10    1.00
  YS02001887YS02001890 CONDUIT    697.23     0  02:25      0.89    1.19    1.00
  YS02001890YS02001895 CONDUIT    515.91     0  02:27      0.66    0.24    1.00
  YS02001895YS02001898 CONDUIT    515.94     0  02:27      0.66    0.90    1.00
  YS02001898YS02001901 CONDUIT    515.93     0  02:27      0.66    0.33    1.00
  YS02001901YS02001904 CONDUIT    515.98     0  02:27      0.66    0.80    1.00
  YS02001904YS02001907 CONDUIT    516.00     0  02:27      0.66    0.18    1.00
  YS02001907YS02006553 CONDUIT    799.58     0  02:36      0.89    0.94    1.00
  YS02001910YS02001907 CONDUIT   1219.50     0  02:25      1.55    0.69    1.00
  YS02001915YS02001910 CONDUIT   1219.53     0  02:25      1.55    0.61    1.00
  YS02001918YS02001915 CONDUIT    445.58     0  02:21      0.57    0.25    1.00
  YS02001920YS02001918 CONDUIT    444.07     0  02:21      0.66    0.43    1.00
  YS02001923YS02001920 CONDUIT    440.31     0  02:21      0.69    0.20    1.00
  YS02001926YS02001923 CONDUIT    414.66     0  02:25      0.95    0.59    1.00
  YS02001929YS02001926 CONDUIT    413.39     0  02:24      1.11    0.20    1.00
  YS02006553YS02006556 CONDUIT    799.81     0  02:36      1.02    0.68    1.00
  YS02006556YS02006558 CONDUIT    801.30     0  02:37      1.02    0.63    1.00
  YS02006558YS02006561 CONDUIT   1160.65     0  02:24      4.10    2.57    1.00
  YS02006561YS02001783 CONDUIT   1160.63     0  02:24      2.31    0.60    1.00
  YS02163301YS02001633 CONDUIT    932.22     0  02:19      1.19    0.88    1.00
  YS02163601YS02164001 CONDUIT   1387.38     0  02:19      1.77    1.23    1.00
  YS02164001YS02001641 CONDUIT   1386.81     0  02:19      1.77    1.89    1.00
  CC-R1                PUMP       683.00     0  01:45              1.00
  CC-R2                PUMP       683.00     0  00:15              1.00
  CC-S1                PUMP       200.00     0  00:05              1.00
  CC-S2                PUMP       200.00     0  00:05              1.00
  JK-R1                PUMP      1000.00     0  00:05              1.00
  JK-R2                PUMP      1000.00     0  00:05              1.00
  JK-S                 PUMP       300.00     0  00:15              1.00
  
  
  ***************************
  Flow Classification Summary
  ***************************
  
  -------------------------------------------------------------------------------------
                      Adjusted    ---------- Fraction of Time in Flow Class ---------- 
                       /Actual         Up    Down  Sub   Sup   Up    Down  Norm  Inlet 
  Conduit               Length    Dry  Dry   Dry   Crit  Crit  Crit  Crit  Ltd   Ctrl  
  -------------------------------------------------------------------------------------
  1                       1.00   0.00  0.00  0.00  0.00  1.00  0.00  0.00  0.37  0.00
  WS02003060WS02003069    1.00   0.00  0.00  0.00  0.97  0.03  0.00  0.00  0.77  0.00
  WS02003066WSF200        1.00   0.03  0.00  0.00  0.00  0.97  0.00  0.00  0.89  0.00
  WS02003067WS02003066    1.00   0.02  0.01  0.00  0.97  0.00  0.00  0.00  0.00  0.00
  WS02003069WS02003072    1.00   0.00  0.00  0.00  0.99  0.01  0.00  0.00  0.84  0.00
  WS02003072WS02003073    1.00   0.00  0.00  0.00  0.00  0.00  0.00  1.00  0.00  0.00
  WS02004401WS02004402    1.00   0.00  0.00  0.00  1.00  0.00  0.00  0.00  0.00  0.00
  WS02004402WS02004403    1.00   0.00  0.00  0.00  1.00  0.00  0.00  0.00  0.00  0.00
  WS02004403WS02004404    1.00   0.00  0.00  0.00  1.00  0.00  0.00  0.00  0.00  0.00
  WS02004404WS02004405    1.00   0.00  0.00  0.00  1.00  0.00  0.00  0.00  0.01  0.00
  WS02004405WS02004406    1.00   0.00  0.00  0.00  1.00  0.00  0.00  0.00  0.00  0.00
  WS02004406WS02004407    1.00   0.00  0.00  0.00  1.00  0.00  0.00  0.00  0.00  0.00
  WS02004407WS02004409    1.00   0.00  0.00  0.00  0.99  0.01  0.00  0.00  0.99  0.00
  WS02004409WS02004410    1.00   0.00  0.00  0.00  0.99  0.00  0.00  0.00  0.00  0.00
  WS02004410WS02004411    1.00   0.01  0.00  0.00  0.99  0.00  0.00  0.00  0.00  0.00
  WS02004411WS02004412    1.00   0.01  0.00  0.00  0.99  0.00  0.00  0.00  0.00  0.00
  WS02004412WS02004413    1.00   0.01  0.00  0.00  0.99  0.00  0.00  0.00  0.00  0.00
  WS02004413WS02003067    1.00   0.01  0.01  0.00  0.00  0.00  0.98  0.00  0.00  0.00
  WS02006109WS02006110    1.00   0.00  0.00  0.00  1.00  0.00  0.00  0.00  0.00  0.00
  WS02006110WS02006113    1.00   0.00  0.00  0.00  1.00  0.00  0.00  0.00  0.00  0.00
  WS02006111WS02006112    1.00   0.00  0.00  0.00  1.00  0.00  0.00  0.00  1.00  0.00
  WS02006112WS02006115    1.00   0.00  0.00  0.00  1.00  0.00  0.00  0.00  0.00  0.00
  WS02006113WS02006111    1.00   0.00  0.00  0.00  0.01  0.99  0.00  0.00  0.09  0.00
  WS02006115WS02006116    1.00   0.00  0.00  0.00  1.00  0.00  0.00  0.00  0.00  0.00
  WS02006116WS02004401    1.00   0.00  0.00  0.00  1.00  0.00  0.00  0.00  0.00  0.00
  WS02006228WS02006109    1.00   0.00  0.00  0.00  1.00  0.00  0.00  0.00  0.00  0.00
  WS02006229WS02006228    1.00   0.00  0.00  0.00  1.00  0.00  0.00  0.00  0.00  0.00
  WS02006230WS02006229    1.00   0.00  0.00  0.00  1.00  0.00  0.00  0.00  0.04  0.00
  WS02006231WS02006230    1.00   0.00  0.00  0.00  0.16  0.00  0.84  0.00  0.00  0.00
  WS02006232WS02006231    1.00   0.00  0.00  0.00  0.99  0.00  0.01  0.00  0.00  0.00
  WS02006234WS02006232    1.00   0.00  0.00  0.00  0.99  0.00  0.00  0.00  0.09  0.00
  WS02006235WS02006234    1.00   0.01  0.00  0.00  0.86  0.00  0.13  0.00  0.00  0.00
  WS02006238WS02006235    1.00   0.01  0.00  0.00  0.98  0.00  0.00  0.00  0.01  0.00
  WS02006239WS02006238    1.00   0.01  0.00  0.00  0.98  0.00  0.00  0.00  0.19  0.00
  WS02006240WS02006239    1.00   0.01  0.00  0.00  0.61  0.00  0.00  0.38  0.06  0.00
  WS02006242WS02006240    1.00   0.01  0.00  0.00  0.97  0.00  0.02  0.00  0.00  0.00
  WS02006243WS02006242    1.00   0.01  0.00  0.00  0.98  0.00  0.00  0.01  0.68  0.00
  WS02006245WS02006243    1.00   0.01  0.00  0.00  0.71  0.00  0.00  0.28  0.00  0.00
  WS02006247WS02006245    1.00   0.01  0.00  0.00  0.97  0.00  0.00  0.02  0.00  0.00
  WS02006248WS02006247    1.00   0.01  0.00  0.00  0.98  0.00  0.00  0.01  0.57  0.00
  WS02006249WS02006248    1.00   0.00  0.01  0.00  0.34  0.00  0.65  0.00  0.00  0.00
  WS02006251WS02006249    1.00   0.00  0.00  0.00  0.99  0.01  0.00  0.00  0.64  0.00
  WS02006252WS02006251    1.00   0.01  0.47  0.00  0.07  0.00  0.45  0.00  0.00  0.00
  WS02006256WS02006235    1.00   0.01  0.00  0.00  0.96  0.03  0.00  0.00  0.01  0.00
  WSF200WS02003060        1.00   0.00  0.03  0.00  0.56  0.41  0.00  0.00  0.76  0.00
  YS02001580YS02001583    1.00   0.28  0.55  0.00  0.17  0.00  0.00  0.00  0.64  0.00
  YS02001583YS02001586    1.00   0.42  0.36  0.00  0.22  0.00  0.00  0.00  0.64  0.00
  YS02001586YS02001590    1.00   0.13  0.00  0.00  0.42  0.05  0.00  0.40  0.39  0.00
  YS02001590YS02001593    1.00   0.13  0.01  0.00  0.09  0.00  0.77  0.00  0.00  0.00
  YS02001593YS02001596    1.00   0.14  0.00  0.00  0.11  0.01  0.00  0.75  0.02  0.00
  YS02001596YS02001600    1.00   0.14  0.00  0.00  0.17  0.02  0.00  0.68  0.05  0.00
  YS02001600YS02001601    1.00   0.13  0.01  0.00  0.86  0.00  0.00  0.00  0.62  0.00
  YS02001601YS02001602    1.00   0.13  0.01  0.00  0.86  0.00  0.00  0.00  0.00  0.00
  YS02001602YS02001605    1.00   0.14  0.00  0.00  0.86  0.00  0.00  0.00  0.00  0.00
  YS02001605YS02001607    1.00   0.14  0.00  0.00  0.86  0.00  0.00  0.00  0.00  0.00
  YS02001607YS02001610    1.00   0.13  0.01  0.00  0.86  0.00  0.00  0.00  0.02  0.00
  YS02001610YS02001613    1.00   0.13  0.00  0.00  0.87  0.00  0.00  0.00  0.01  0.00
  YS02001613YS02001616    1.00   0.13  0.00  0.00  0.87  0.00  0.00  0.00  0.01  0.00
  YS02001616YS02001619    1.00   0.13  0.00  0.00  0.87  0.00  0.00  0.00  0.00  0.00
  YS02001619YS02001622    1.00   0.13  0.00  0.00  0.87  0.00  0.00  0.00  0.28  0.00
  YS02001622YS02001625    1.00   0.13  0.00  0.00  0.87  0.00  0.00  0.00  0.06  0.00
  YS02001625YS02001629    1.00   0.13  0.06  0.00  0.13  0.00  0.68  0.00  0.00  0.00
  YS02001629YS02163301    1.00   0.16  0.01  0.00  0.83  0.00  0.00  0.00  0.00  0.00
  YS02001633YS02163601    1.00   0.00  0.01  0.00  0.99  0.00  0.00  0.00  0.15  0.00
  YS02001641YS02001644    1.00   0.00  0.01  0.00  0.99  0.00  0.00  0.00  0.00  0.00
  YS02001644YS02001647    1.00   0.00  0.19  0.00  0.81  0.00  0.00  0.00  0.00  0.00
  YS02001647YS02001649    1.00   0.00  0.19  0.00  0.48  0.34  0.00  0.00  0.56  0.00
  YS02001649YS02001757    1.00   0.00  0.00  0.00  0.63  0.37  0.00  0.00  0.50  0.00
  YS02001652YS02001649    1.00   0.00  0.00  0.00  0.96  0.04  0.00  0.00  0.78  0.00
  YS02001655YS02001652    1.00   0.00  0.00  0.00  0.15  0.02  0.00  0.84  0.06  0.00
  YS02001658YS02001655    1.00   0.00  0.14  0.00  0.61  0.24  0.00  0.00  0.74  0.00
  YS02001661YS02001658    1.00   0.14  0.00  0.00  0.45  0.40  0.00  0.00  0.74  0.00
  YS02001664YS02001661    1.00   0.13  0.00  0.00  0.77  0.11  0.00  0.00  0.86  0.00
  YS02001745YS02001748    1.00   0.00  0.00  0.00  0.05  0.01  0.00  0.95  0.03  0.00
  YS02001748YS02001751    1.00   0.00  0.00  0.00  0.78  0.22  0.00  0.00  0.77  0.00
  YS02001751YS02001754    1.00   0.00  0.00  0.00  0.10  0.01  0.00  0.89  0.03  0.00
  YS02001754YS02001757    1.00   0.00  0.00  0.00  1.00  0.00  0.00  0.00  0.88  0.00
  YS02001757CaochengTiaoxuchi    1.00   0.00  0.00  0.00  0.94  0.06  0.00  0.00  0.84  0.00
  YS02001759YS02001757    1.00   0.00  0.00  0.00  1.00  0.00  0.00  0.00  0.66  0.00
  YS02001762YS02001759    1.00   0.00  0.00  0.00  1.00  0.00  0.00  0.00  0.06  0.00
  YS02001765YS02001762    1.00   0.00  0.00  0.00  1.00  0.00  0.00  0.00  0.76  0.00
  YS02001767YS02001765    1.00   0.00  0.00  0.00  1.00  0.00  0.00  0.00  0.00  0.00
  YS02001770YS02001767    1.00   0.00  0.00  0.00  1.00  0.00  0.00  0.00  0.00  0.00
  YS02001774YS02001770    1.00   0.00  0.14  0.00  0.70  0.00  0.17  0.00  0.04  0.00
  YS02001779YS02001774    1.00   0.00  0.00  0.00  1.00  0.00  0.00  0.00  0.81  0.00
  YS02001783YS02001784    1.00   0.00  0.19  0.00  0.81  0.00  0.00  0.00  0.55  0.00
  YS02001784YS02001785    1.00   0.00  0.00  0.00  1.00  0.00  0.00  0.00  0.18  0.00
  YS02001786YS02001788    1.00   0.00  0.00  0.00  0.80  0.20  0.00  0.00  0.00  0.00
  YS02001788YS02001790    1.00   0.00  0.00  0.00  0.22  0.78  0.00  0.00  0.83  0.00
  YS02001790YS02001791    1.00   0.00  0.00  0.00  0.01  0.99  0.00  0.00  0.15  0.00
  YS02001791YS02001793    1.00   0.00  0.00  0.00  0.00  1.00  0.00  0.00  0.01  0.00
  YS02001793JiankangQianchi    1.00   0.00  0.00  0.00  0.97  0.02  0.00  0.00  0.98  0.00
  YS02001882YS02001884    1.00   0.16  0.01  0.00  0.83  0.00  0.00  0.00  0.00  0.00
  YS02001884YS02001887    1.00   0.06  0.05  0.00  0.89  0.00  0.00  0.00  0.00  0.00
  YS02001887YS02001890    1.00   0.00  0.00  0.00  0.97  0.00  0.03  0.00  0.00  0.00
  YS02001890YS02001895    1.00   0.00  0.17  0.00  0.82  0.00  0.00  0.00  0.00  0.00
  YS02001895YS02001898    1.00   0.18  0.00  0.00  0.80  0.00  0.02  0.00  0.00  0.00
  YS02001898YS02001901    1.00   0.18  0.00  0.00  0.82  0.00  0.00  0.00  0.01  0.00
  YS02001901YS02001904    1.00   0.18  0.00  0.00  0.82  0.00  0.00  0.00  0.00  0.00
  YS02001904YS02001907    1.00   0.00  0.17  0.00  0.82  0.00  0.00  0.00  0.00  0.00
  YS02001907YS02006553    1.00   0.00  0.02  0.00  0.98  0.00  0.00  0.00  0.00  0.00
  YS02001910YS02001907    1.00   0.00  0.00  0.00  0.97  0.00  0.00  0.03  0.12  0.00
  YS02001915YS02001910    1.00   0.00  0.00  0.00  0.96  0.04  0.00  0.00  0.18  0.00
  YS02001918YS02001915    1.00   0.00  0.00  0.00  0.98  0.02  0.00  0.00  0.78  0.00
  YS02001920YS02001918    1.00   0.00  0.00  0.00  1.00  0.00  0.00  0.00  0.01  0.00
  YS02001923YS02001920    1.00   0.00  0.00  0.00  1.00  0.00  0.00  0.00  0.94  0.00
  YS02001926YS02001923    1.00   0.00  0.07  0.00  0.05  0.00  0.88  0.00  0.00  0.00
  YS02001929YS02001926    1.00   0.00  0.13  0.00  0.87  0.00  0.00  0.00  0.83  0.00
  YS02006553YS02006556    1.00   0.01  0.00  0.00  0.99  0.00  0.00  0.00  0.03  0.00
  YS02006556YS02006558    1.00   0.00  0.00  0.00  1.00  0.00  0.00  0.00  0.00  0.00
  YS02006558YS02006561    1.00   0.19  0.00  0.00  0.04  0.76  0.00  0.00  0.19  0.00
  YS02006561YS02001783    1.00   0.19  0.00  0.00  0.07  0.73  0.00  0.00  0.69  0.00
  YS02163301YS02001633    1.00   0.00  0.16  0.00  0.84  0.00  0.00  0.00  0.00  0.00
  YS02163601YS02164001    1.00   0.00  0.08  0.00  0.92  0.00  0.00  0.00  0.00  0.00
  YS02164001YS02001641    1.00   0.01  0.07  0.00  0.92  0.00  0.00  0.00  0.06  0.00
  
  
  *************************
  Conduit Surcharge Summary
  *************************
  
  ----------------------------------------------------------------------------
                                                           Hours        Hours 
                         --------- Hours Full --------   Above Full   Capacity
  Conduit                Both Ends  Upstream  Dnstream   Normal Flow   Limited
  ----------------------------------------------------------------------------
  WS02003072WS02003073        0.01      0.01      0.01      0.59         0.01
  WS02004401WS02004402        0.01      0.01      0.01      0.01         0.01
  WS02004402WS02004403        0.01      0.01      0.01      0.01         0.01
  WS02004403WS02004404        0.01      0.01      0.04      0.01         0.01
  WS02004404WS02004405        0.01      0.04      0.01      2.15         0.01
  WS02004405WS02004406        0.01      0.01      0.01      0.52         0.01
  WS02006109WS02006110        0.52      0.53      1.07      0.54         0.01
  WS02006110WS02006113        0.01      0.01      1.05      0.01         0.01
  WS02006111WS02006112        0.01      0.01      1.39      0.01         0.01
  WS02006112WS02006115        0.01      0.01      0.56      0.01         0.01
  WS02006113WS02006111        0.01      0.01      0.01      0.01         0.01
  WS02006115WS02006116        0.01      0.01      0.01      0.01         0.01
  WS02006116WS02004401        0.01      0.01      0.01      0.01         0.01
  WS02006228WS02006109        1.03      1.07      1.03      1.62         1.03
  WS02006229WS02006228        1.02      1.03      1.02      1.34         1.02
  WS02006230WS02006229        1.16      1.29      1.16      2.50         1.16
  WS02006231WS02006230        0.53      0.53      0.56      2.21         0.01
  WS02006232WS02006231        0.54      0.54      1.06      0.56         0.01
  WS02006234WS02006232        1.02      1.02      1.06      0.56         0.55
  WS02006235WS02006234        0.63      0.63      1.03      2.07         0.01
  WS02006238WS02006235        1.03      1.03      1.07      0.01         0.01
  WS02006239WS02006238        1.04      1.05      1.04      1.14         0.92
  WS02006240WS02006239        1.02      1.03      1.02      1.15         0.85
  WS02006242WS02006240        1.02      1.02      1.12      1.31         0.01
  WS02006243WS02006242        1.01      1.01      1.07      0.01         0.01
  WS02006245WS02006243        0.99      0.99      1.00      0.62         0.56
  WS02006247WS02006245        0.99      0.99      0.99      2.00         0.99
  WS02006248WS02006247        0.98      0.98      0.99      0.01         0.01
  WS02006249WS02006248        0.97      0.97      0.97      1.95         0.01
  WS02006251WS02006249        0.97      0.98      0.97      1.21         0.96
  WS02006252WS02006251        1.23      1.23      1.28      1.24         0.01
  WS02006256WS02006235        2.16      2.17      6.21      0.88         0.01
  YS02001580YS02001583        0.45      0.45      0.49      0.01         0.01
  YS02001583YS02001586        0.46      0.46      0.55      0.01         0.01
  YS02001586YS02001590        0.56      0.56      0.62      0.01         0.01
  YS02001590YS02001593        0.62      0.62      0.64      0.64         0.01
  YS02001593YS02001596        0.63      0.63      0.72      0.01         0.01
  YS02001596YS02001600        0.77      0.77      0.86      0.01         0.01
  YS02001600YS02001601        0.92      0.92      1.19      0.01         0.01
  YS02001601YS02001602        1.08      1.08      1.23      0.88         0.01
  YS02001602YS02001605        1.03      1.03      1.08      2.14         0.01
  YS02001605YS02001607        0.99      1.03      0.99      1.15         0.99
  YS02001607YS02001610        0.57      0.57      0.60      0.01         0.01
  YS02001610YS02001613        0.56      0.56      0.60      0.01         0.01
  YS02001613YS02001616        0.53      0.53      0.56      0.01         0.01
  YS02001616YS02001619        0.52      0.52      0.53      0.01         0.01
  YS02001619YS02001622        0.52      0.52      0.52      0.66         0.50
  YS02001622YS02001625        0.52      0.52      0.68      0.01         0.01
  YS02001625YS02001629        0.47      0.47      0.68      0.01         0.01
  YS02001629YS02163301        0.66      0.66      0.67      0.27         0.26
  YS02001633YS02163601        0.69      0.69      0.71      0.38         0.38
  YS02001641YS02001644        0.56      0.60      0.56      1.27         0.56
  YS02001644YS02001647        0.37      0.37      0.56      0.04         0.01
  YS02001647YS02001649        0.37      0.37      0.43      0.01         0.01
  YS02001649YS02001757        0.43      0.43      0.46      0.30         0.24
  YS02001652YS02001649        0.32      0.32      0.43      0.01         0.01
  YS02001655YS02001652        0.21      0.21      0.30      0.01         0.01
  YS02001658YS02001655        0.11      0.11      0.21      0.01         0.01
  YS02001661YS02001658        0.01      0.01      0.11      0.01         0.01
  YS02001664YS02001661        0.01      0.01      0.01      0.01         0.01
  YS02001745YS02001748        0.01      0.01      0.03      0.01         0.01
  YS02001748YS02001751        0.09      0.09      0.14      0.01         0.01
  YS02001751YS02001754        0.14      0.14      0.22      0.01         0.01
  YS02001754YS02001757        0.24      0.24      0.46      0.01         0.01
  YS02001757CaochengTiaoxuchi        0.34      0.46      0.89      0.34         0.18
  YS02001759YS02001757        0.38      0.38      0.46      0.01         0.02
  YS02001762YS02001759        0.36      0.36      0.38      0.01         0.02
  YS02001765YS02001762        0.33      0.33      0.36      0.01         0.01
  YS02001767YS02001765        0.32      0.32      0.33      0.01         0.05
  YS02001770YS02001767        0.32      0.32      0.32      0.44         0.26
  YS02001774YS02001770        0.30      0.30      0.35      0.01         0.01
  YS02001779YS02001774        0.23      0.23      0.35      0.01         0.01
  YS02001783YS02001784        0.40      0.42      0.40      0.56         0.40
  YS02001784YS02001785        0.31      0.40      0.31      0.77         0.31
  YS02001786YS02001788        0.01      0.31      0.01      0.67         0.01
  YS02001790YS02001791        0.01      0.01      0.01      0.39         0.01
  YS02001793JiankangQianchi        0.01      0.01      7.12      0.01         0.01
  YS02001882YS02001884        0.37      0.37      0.39      0.01         0.01
  YS02001884YS02001887        0.41      0.41      0.41      0.01         0.01
  YS02001887YS02001890        0.43      0.43      0.44      0.06         0.01
  YS02001890YS02001895        0.36      0.36      0.45      0.01         0.01
  YS02001895YS02001898        0.36      0.36      0.36      0.01         0.01
  YS02001898YS02001901        0.37      0.37      0.40      0.01         0.01
  YS02001901YS02001904        0.39      0.39      0.40      0.01         0.01
  YS02001904YS02001907        0.39      0.39      0.64      0.01         0.01
  YS02001907YS02006553        0.77      0.77      0.84      0.01         0.01
  YS02001910YS02001907        0.45      0.45      0.63      0.01         0.01
  YS02001915YS02001910        0.37      0.37      0.45      0.01         0.01
  YS02001918YS02001915        0.30      0.30      0.37      0.01         0.01
  YS02001920YS02001918        0.30      0.30      0.31      0.01         0.01
  YS02001923YS02001920        0.25      0.25      0.31      0.01         0.01
  YS02001926YS02001923        0.02      0.03      0.04      0.01         0.01
  YS02001929YS02001926        0.01      0.01      0.04      0.01         0.01
  YS02006553YS02006556        0.54      0.54      0.64      0.01         0.01
  YS02006556YS02006558        0.59      0.59      0.66      0.01         0.01
  YS02006558YS02006561        0.33      0.52      0.33      0.73         0.33
  YS02006561YS02001783        0.26      0.26      0.42      0.01         0.01
  YS02163301YS02001633        0.67      0.67      0.70      0.01         0.01
  YS02163601YS02164001        0.61      0.61      0.71      0.15         0.01
  YS02164001YS02001641        0.60      0.61      0.60      0.63         0.48
  
  
  ***************
  Pumping Summary
  ***************
  
  ---------------------------------------------------------------------------------------------------------
                                                  Min       Avg       Max     Total     Power    % Time Off
                        Percent   Number of      Flow      Flow      Flow    Volume     Usage    Pump Curve
  Pump                 Utilized   Start-Ups       LPS       LPS       LPS  10^6 ltr     Kw-hr    Low   High
  ---------------------------------------------------------------------------------------------------------
  CC-R1                   14.06          11      0.00    683.00    683.00     2.765     48.77    0.0   45.2
  CC-R2                   24.63          39      0.00    683.00    683.00     4.845     84.79    0.0   57.3
  CC-S1                   24.71          36      0.00    200.00    200.00     1.423      9.03    0.0    0.0
  CC-S2                   17.50           4      0.00    200.00    200.00     1.008      6.24    0.0    0.0
  JK-R1                    5.39          23      0.00   1000.00   1000.00     1.551     12.63    0.0    0.0
  JK-R2                    4.03          24      0.00   1000.00   1000.00     1.161      9.66    0.0    0.0
  JK-S                    10.15          36      0.00    300.00    300.00     0.877     15.27    0.0    0.0
  

  Analysis begun on:  Fri Aug  4 11:25:37 2023
  Analysis ended on:  Fri Aug  4 11:25:45 2023
  Total elapsed time: 00:00:08