
  OWA STORM WATER MANAGEMENT MODEL - VERSION v5.2.3 (OWA 2023-06-06)
  ------------------------------------------------------------

  WARNING 04: minimum elevation drop used for Conduit WS02004404WS02004405
  WARNING 03: negative offset ignored for Link YS02001904YS02001907
  
  ****************
  Analysis Options
  ****************
  Flow Units ............... LPS
  Process Models:
    Rainfall/Runoff ........ YES
    RDII ................... NO
    Snowmelt ............... NO
    Groundwater ............ NO
    Flow Routing ........... YES
    Ponding Allowed ........ NO
    Water Quality .......... NO
  Infiltration Method ...... HORTON
  Flow Routing Method ...... DYNWAVE
  Surcharge Method ......... EXTRAN
  Starting Date ............ 08/28/2015 08:00:00
  Ending Date .............. 08/28/2015 16:00:00
  Antecedent Dry Days ...... 8.0
  Report Time Step ......... 00:01:00
  Wet Time Step ............ 00:01:00
  Dry Time Step ............ 00:01:00
  Routing Time Step ........ 30.00 sec
  Variable Time Step ....... YES
  Maximum Trials ........... 8
  Number of Threads ........ 2
  Head Tolerance ........... 0.001500 m
  
  
  **************************        Volume         Depth
  Runoff Quantity Continuity     hectare-m            mm
  **************************     ---------       -------
  Total Precipitation ......         0.908        27.379
  Evaporation Loss .........         0.000         0.000
  Infiltration Loss ........         0.085         2.554
  Surface Runoff ...........         0.791        23.844
  Final Storage ............         0.033         0.989
  Continuity Error (%) .....        -0.029
  
  
  **************************        Volume        Volume
  Flow Routing Continuity        hectare-m      10^6 ltr
  **************************     ---------     ---------
  Dry Weather Inflow .......         0.025         0.251
  Wet Weather Inflow .......         0.790         7.898
  Groundwater Inflow .......         0.000         0.000
  RDII Inflow ..............         0.000         0.000
  External Inflow ..........         0.083         0.834
  External Outflow .........         0.969         9.686
  Flooding Loss ............         0.022         0.217
  Evaporation Loss .........         0.000         0.000
  Exfiltration Loss ........         0.000         0.000
  Initial Stored Volume ....         0.243         2.431
  Final Stored Volume ......         0.182         1.815
  Continuity Error (%) .....        -2.677
  
  
  *************************
  Highest Continuity Errors
  *************************
  Node WS02006256 (-6.96%)
  Node YS02001884 (5.29%)
  Node YS02001583 (-4.38%)
  Node YS02001774 (3.36%)
  Node WS02006111 (-1.80%)
  
  
  ***************************
  Time-Step Critical Elements
  ***************************
  Link WS02006252WS02006251 (48.00%)
  Link WS02006238WS02006235 (20.44%)
  Link WS02004404WS02004405 (12.83%)
  Link WS02003066WSF200 (5.28%)
  Link YS02001791YS02001793 (3.52%)
  
  
  ********************************
  Highest Flow Instability Indexes
  ********************************
  Link WS02006113WS02006111 (26)
  Link WS02006256WS02006235 (15)
  Link WS02006111WS02006112 (10)
  Link WS02006229WS02006228 (9)
  Link WS02006238WS02006235 (7)
  
  
  *********************************
  Most Frequent Nonconverging Nodes
  *********************************
  Node CC-1 (5.58%)
  Node CC-2 (5.58%)
  Node JK-1 (5.58%)
  Node JK-2 (5.58%)
  Node WSC (5.58%)
  
  
  *************************
  Routing Time Step Summary
  *************************
  Minimum Time Step           :     0.00 sec
  Average Time Step           :     2.55 sec
  Maximum Time Step           :    30.00 sec
  % of Time in Steady State   :     0.00
  Average Iterations per Step :     2.59
  % of Steps Not Converging   :     5.58
  Time Step Frequencies       :
     30.000 - 13.228 sec      :     0.01 %
     13.228 -  5.833 sec      :    12.38 %
      5.833 -  2.572 sec      :    29.57 %
      2.572 -  1.134 sec      :     9.91 %
      1.134 -  0.500 sec      :    48.13 %
  
  
  ***************************
  Subcatchment Runoff Summary
  ***************************
  
  ------------------------------------------------------------------------------------------------------------------------------
                            Total      Total      Total      Total     Imperv       Perv      Total       Total     Peak  Runoff
                           Precip      Runon       Evap      Infil     Runoff     Runoff     Runoff      Runoff   Runoff   Coeff
  Subcatchment                 mm         mm         mm         mm         mm         mm         mm    10^6 ltr      LPS
  ------------------------------------------------------------------------------------------------------------------------------
  sub60                     27.38       0.00       0.00       1.61      22.89       1.67      24.56        0.32   198.14   0.897
  sub61                     27.38       0.00       0.00       2.32      21.59       2.33      23.92        0.44   269.56   0.874
  sub62                     27.38       0.00       0.00       1.08      23.90       1.12      25.02        0.69   372.38   0.914
  sub63                     27.38       0.00       0.00       4.22      18.47       3.72      22.18        0.50   281.73   0.810
  sub64                     27.38       0.00       0.00       2.14      22.07       1.96      24.03        0.58   284.35   0.878
  sub65                     27.38       0.00       0.00       1.86      22.57       1.70      24.27        0.67   313.15   0.887
  sub66                     27.38       0.00       0.00       4.99      18.37       2.95      21.32        0.99   373.17   0.779
  sub67                     27.38       0.00       0.00       1.05      23.94       1.14      25.08        0.47   318.81   0.916
  sub68                     27.38       0.00       0.00       1.92      22.36       1.91      24.27        0.67   380.64   0.886
  sub69                     27.38       0.00       0.00       1.62      23.16       2.48      25.65        0.95   443.14   0.937
  sub70                     27.38       0.00       0.00       5.13      17.91       4.18      22.10        0.64   219.96   0.807
  sub71                     27.38       0.00       0.00       1.10      23.86       1.10      24.96        0.65   309.95   0.912
  sub72                     27.38       0.00       0.00       0.97      24.07       0.95      25.01        0.34   143.10   0.914
  
  
  ******************
  Node Depth Summary
  ******************
  
  ---------------------------------------------------------------------------------
                                 Average  Maximum  Maximum  Time of Max    Reported
                                   Depth    Depth      HGL   Occurrence   Max Depth
  Node                 Type       Meters   Meters   Meters  days hr:min      Meters
  ---------------------------------------------------------------------------------
  WS02003060           JUNCTION     0.17     0.35     5.28     0  02:21        0.35
  WS02003066           JUNCTION     0.15     0.28     5.83     0  02:24        0.28
  WS02003067           JUNCTION     0.43     0.66     5.98     0  02:20        0.66
  WS02003069           JUNCTION     0.19     0.39     4.97     0  02:22        0.39
  WS02003072           JUNCTION     0.25     0.46     4.83     0  02:23        0.46
  WS02003073           JUNCTION     0.13     0.27     4.34     0  02:26        0.27
  WS02004401           JUNCTION     0.51     0.79     6.79     0  02:17        0.79
  WS02004402           JUNCTION     0.54     0.82     6.78     0  02:18        0.82
  WS02004403           JUNCTION     0.57     0.84     6.77     0  02:07        0.84
  WS02004404           JUNCTION     0.65     0.91     6.76     0  02:07        0.91
  WS02004405           JUNCTION     0.64     0.91     6.76     0  02:07        0.91
  WS02004406           JUNCTION     0.66     0.91     6.74     0  02:18        0.91
  WS02004407           JUNCTION     0.13     0.27     6.59     0  02:19        0.27
  WS02004409           JUNCTION     0.29     0.60     6.37     0  02:22        0.60
  WS02004410           JUNCTION     0.32     0.62     6.34     0  02:23        0.62
  WS02004411           JUNCTION     0.34     0.63     6.31     0  02:23        0.63
  WS02004412           JUNCTION     0.37     0.64     6.28     0  02:23        0.64
  WS02004413           JUNCTION     0.54     0.81     6.28     0  02:23        0.81
  WS02006109           JUNCTION     0.55     1.02     7.64     0  02:04        0.96
  WS02006110           JUNCTION     0.56     0.97     7.56     0  02:04        0.92
  WS02006111           JUNCTION     0.14     0.90     7.60     0  00:00        0.40
  WS02006112           JUNCTION     0.65     2.68     8.56     0  00:00        1.14
  WS02006113           JUNCTION     0.21     1.40     8.29     0  00:00        0.45
  WS02006115           JUNCTION     0.38     1.65     7.79     0  00:00        0.86
  WS02006116           JUNCTION     0.47     1.06     7.10     0  00:00        0.76
  WS02006228           JUNCTION     0.53     1.05     7.70     0  02:04        1.01
  WS02006229           JUNCTION     0.49     1.05     7.74     0  02:03        1.02
  WS02006230           JUNCTION     0.47     1.17     7.91     0  02:03        1.13
  WS02006231           JUNCTION     0.30     1.01     8.14     0  02:15        0.89
  WS02006232           JUNCTION     0.41     1.62     8.66     0  00:15        1.09
  WS02006234           JUNCTION     0.32     1.92     9.08     0  02:15        1.11
  WS02006235           JUNCTION     0.35     1.87     9.04     0  02:15        1.19
  WS02006238           JUNCTION     0.37     1.90     9.05     0  02:15        1.22
  WS02006239           JUNCTION     0.32     1.82     9.03     0  02:15        1.36
  WS02006240           JUNCTION     0.29     1.82     9.11     0  00:15        1.45
  WS02006242           JUNCTION     0.34     1.55     8.82     0  02:15        1.47
  WS02006243           JUNCTION     0.26     1.48     8.90     0  02:02        1.28
  WS02006245           JUNCTION     0.26     1.36     8.85     0  02:02        1.16
  WS02006247           JUNCTION     0.27     1.26     8.76     0  02:15        1.14
  WS02006248           JUNCTION     0.24     1.10     8.69     0  02:15        1.08
  WS02006249           JUNCTION     0.27     1.09     8.69     0  02:02        1.09
  WS02006251           JUNCTION     0.25     1.36     9.03     0  02:03        1.11
  WS02006252           JUNCTION     0.22     1.50     9.74     0  02:00        0.68
  WS02006256           JUNCTION     0.80     2.35     9.28     0  00:09        2.35
  WSF200               JUNCTION     0.12     0.26     5.50     0  02:20        0.26
  YS02001580           JUNCTION     0.05     0.96     9.50     0  01:42        0.69
  YS02001583           JUNCTION     0.09     0.97     9.47     0  01:42        0.79
  YS02001586           JUNCTION     0.16     1.13     9.30     0  01:42        1.00
  YS02001590           JUNCTION     0.26     1.38     9.24     0  01:42        1.19
  YS02001593           JUNCTION     0.20     1.30     9.16     0  01:42        1.15
  YS02001596           JUNCTION     0.27     1.66     9.08     0  01:42        1.57
  YS02001600           JUNCTION     0.36     1.86     8.99     0  01:42        1.81
  YS02001601           JUNCTION     0.55     2.06     8.90     0  01:40        2.06
  YS02001602           JUNCTION     0.46     1.87     8.77     0  01:43        1.87
  YS02001605           JUNCTION     0.41     1.78     8.68     0  01:43        1.78
  YS02001607           JUNCTION     0.38     1.68     8.53     0  01:43        1.68
  YS02001610           JUNCTION     0.42     1.68     8.48     0  01:43        1.68
  YS02001613           JUNCTION     0.38     1.70     8.54     0  01:43        1.70
  YS02001616           JUNCTION     0.32     1.61     8.52     0  01:43        1.61
  YS02001619           JUNCTION     0.30     1.61     8.54     0  01:43        1.61
  YS02001622           JUNCTION     0.28     1.59     8.50     0  01:43        1.59
  YS02001625           JUNCTION     0.52     1.64     8.25     0  01:43        1.64
  YS02001629           JUNCTION     0.41     1.68     8.23     0  01:42        1.54
  YS02001633           JUNCTION     0.48     1.62     8.07     0  01:42        1.37
  YS02001641           JUNCTION     0.45     1.28     7.72     0  01:42        1.19
  YS02001644           JUNCTION     0.44     1.15     7.58     0  01:42        1.14
  YS02001647           JUNCTION     0.22     0.75     7.36     0  01:43        0.73
  YS02001649           JUNCTION     0.25     0.85     7.24     0  01:44        0.84
  YS02001652           JUNCTION     0.13     0.65     7.24     0  01:44        0.62
  YS02001655           JUNCTION     0.08     0.40     7.25     0  01:44        0.35
  YS02001658           JUNCTION     0.06     0.23     7.38     0  01:40        0.23
  YS02001661           JUNCTION     0.12     0.29     7.70     0  01:40        0.29
  YS02001664           JUNCTION     0.05     0.20     8.13     0  01:40        0.20
  YS02001745           JUNCTION     0.05     0.19     7.70     0  01:40        0.19
  YS02001748           JUNCTION     0.05     0.21     7.29     0  01:40        0.21
  YS02001751           JUNCTION     0.05     0.21     7.09     0  01:41        0.21
  YS02001754           JUNCTION     0.09     0.50     7.11     0  01:45        0.49
  YS02001757           JUNCTION     0.24     0.83     7.09     0  01:47        0.82
  YS02001759           JUNCTION     0.19     0.74     7.10     0  01:46        0.73
  YS02001762           JUNCTION     0.18     0.71     7.11     0  01:46        0.70
  YS02001765           JUNCTION     0.16     0.67     7.12     0  01:46        0.66
  YS02001767           JUNCTION     0.16     0.64     7.13     0  01:46        0.64
  YS02001770           JUNCTION     0.17     0.66     7.15     0  01:46        0.65
  YS02001774           JUNCTION     0.23     0.73     7.15     0  01:47        0.72
  YS02001779           JUNCTION     0.06     0.48     7.17     0  01:45        0.47
  YS02001783           JUNCTION     0.23     0.86     7.01     0  01:46        0.86
  YS02001784           JUNCTION     0.25     0.82     6.89     0  01:46        0.82
  YS02001786           JUNCTION     0.22     0.66     6.69     0  01:46        0.66
  YS02001788           JUNCTION     0.16     0.52     6.50     0  01:46        0.52
  YS02001790           JUNCTION     0.19     0.61     6.26     0  01:47        0.61
  YS02001791           JUNCTION     0.12     0.37     5.84     0  01:47        0.36
  YS02001793           JUNCTION     0.06     0.19     5.02     0  01:47        0.18
  YS02001882           JUNCTION     0.27     0.94     7.66     0  01:46        0.94
  YS02001884           JUNCTION     0.35     1.04     7.65     0  01:46        1.03
  YS02001887           JUNCTION     0.42     1.12     7.65     0  01:46        1.11
  YS02001890           JUNCTION     0.45     1.14     7.65     0  01:46        1.14
  YS02001895           JUNCTION     0.24     0.90     7.65     0  01:46        0.89
  YS02001898           JUNCTION     0.25     0.91     7.64     0  01:45        0.91
  YS02001901           JUNCTION     0.35     1.04     7.65     0  01:45        1.03
  YS02001904           JUNCTION     0.33     1.02     7.65     0  01:47        1.01
  YS02001907           JUNCTION     0.63     1.36     7.64     0  01:47        1.35
  YS02001910           JUNCTION     0.44     1.15     7.66     0  01:47        1.15
  YS02001915           JUNCTION     0.27     0.95     7.67     0  01:47        0.95
  YS02001918           JUNCTION     0.11     0.61     7.67     0  01:46        0.60
  YS02001920           JUNCTION     0.20     0.67     7.68     0  01:47        0.66
  YS02001923           JUNCTION     0.07     0.42     7.68     0  01:46        0.42
  YS02001926           JUNCTION     0.12     0.31     7.76     0  01:44        0.31
  YS02001929           JUNCTION     0.06     0.18     7.87     0  01:44        0.18
  YS02006553           JUNCTION     0.63     1.35     7.63     0  01:47        1.34
  YS02006556           JUNCTION     0.61     1.30     7.61     0  01:47        1.29
  YS02006558           JUNCTION     0.65     1.33     7.60     0  01:46        1.33
  YS02006561           JUNCTION     0.13     0.46     7.12     0  01:46        0.45
  YS02163301           JUNCTION     0.43     1.63     8.15     0  01:42        1.35
  YS02163601           JUNCTION     0.51     1.50     7.89     0  01:42        1.31
  YS02164001           JUNCTION     0.44     1.35     7.81     0  01:42        1.22
  CC-1                 OUTFALL      0.00     0.00     0.00     0  00:00        0.00
  CC-2                 OUTFALL      0.00     0.00     0.00     0  00:00        0.00
  JK-1                 OUTFALL      0.00     0.00     0.00     0  00:00        0.00
  JK-2                 OUTFALL      0.00     0.00     0.00     0  00:00        0.00
  WSC                  OUTFALL      0.13     0.27     0.94     0  02:26        0.27
  CC-storage           STORAGE      0.68     1.05     6.55     0  02:10        1.05
  JK-storage           STORAGE      1.42     3.28     4.08     0  01:45        3.27
  
  
  *******************
  Node Inflow Summary
  *******************
  
  -------------------------------------------------------------------------------------------------
                                  Maximum  Maximum                  Lateral       Total        Flow
                                  Lateral    Total  Time of Max      Inflow      Inflow     Balance
                                   Inflow   Inflow   Occurrence      Volume      Volume       Error
  Node                 Type           LPS      LPS  days hr:min    10^6 ltr    10^6 ltr     Percent
  -------------------------------------------------------------------------------------------------
  WS02003060           JUNCTION     16.53   464.78     0  02:21       0.476        2.57       0.094
  WS02003066           JUNCTION      0.00   446.26     0  02:24           0        2.09       0.066
  WS02003067           JUNCTION      0.00   446.19     0  02:24           0         2.1       0.200
  WS02003069           JUNCTION      0.32   465.17     0  02:21     0.00922        2.57       0.152
  WS02003072           JUNCTION      0.00   462.81     0  02:22           0        2.57       0.272
  WS02003073           JUNCTION      1.82   463.59     0  02:23      0.0524        2.62       0.218
  WS02004401           JUNCTION      0.00  1677.78     0  00:00           0        2.21       0.520
  WS02004402           JUNCTION      0.00  1171.33     0  00:01           0        2.19       0.511
  WS02004403           JUNCTION      0.00   884.75     0  00:01           0        2.18       0.499
  WS02004404           JUNCTION      0.16   832.59     0  00:01     0.00467        2.17       0.427
  WS02004405           JUNCTION      0.04   776.49     0  00:01      0.0011        2.17       0.565
  WS02004406           JUNCTION      0.00   711.76     0  00:02           0        2.15       1.016
  WS02004407           JUNCTION      0.00   462.95     0  02:18           0        2.13       0.050
  WS02004409           JUNCTION      0.00   460.09     0  02:19           0        2.13       0.123
  WS02004410           JUNCTION      0.00   458.09     0  02:19           0        2.13       0.210
  WS02004411           JUNCTION      0.00   455.12     0  02:19           0        2.12       0.272
  WS02004412           JUNCTION      0.00   453.98     0  02:20           0        2.12       0.356
  WS02004413           JUNCTION      0.00   450.34     0  02:20           0        2.11       0.650
  WS02006109           JUNCTION      1.23  1308.01     0  00:00      0.0354        2.14       0.404
  WS02006110           JUNCTION      0.00   544.69     0  02:04           0        2.11      -1.682
  WS02006111           JUNCTION      0.00  1176.04     0  00:00           0        2.14      -1.770
  WS02006112           JUNCTION      0.00  2307.30     0  00:00           0        2.18      -0.030
  WS02006113           JUNCTION      0.00   552.11     0  02:04           0         2.1      -2.328
  WS02006115           JUNCTION      0.00   899.27     0  00:00           0        2.15      -1.483
  WS02006116           JUNCTION      0.00  1098.16     0  00:01           0        2.18      -1.057
  WS02006228           JUNCTION      0.00   542.23     0  02:04           0        2.08       0.165
  WS02006229           JUNCTION      0.00   541.28     0  02:04           0        2.07       0.491
  WS02006230           JUNCTION     10.28   547.78     0  02:15       0.296        2.05       0.138
  WS02006231           JUNCTION      0.00   542.93     0  02:15           0        1.75      -0.099
  WS02006232           JUNCTION      0.00   542.09     0  02:15           0        1.76       0.652
  WS02006234           JUNCTION      0.00   541.44     0  02:15           0        1.74      -0.920
  WS02006235           JUNCTION      0.00   542.38     0  02:15           0        1.89       0.919
  WS02006238           JUNCTION      0.00   421.09     0  02:05           0         1.5      -0.275
  WS02006239           JUNCTION      0.00   419.89     0  02:05           0         1.4      -0.113
  WS02006240           JUNCTION      0.00   417.93     0  02:05           0        1.35       0.008
  WS02006242           JUNCTION      0.00   417.41     0  02:05           0        1.34       0.167
  WS02006243           JUNCTION      0.00   418.22     0  02:05           0        1.33      -0.214
  WS02006245           JUNCTION      0.00   418.37     0  02:05           0        1.33       0.683
  WS02006247           JUNCTION      0.00   417.56     0  02:05           0        1.33      -0.161
  WS02006248           JUNCTION      0.00   417.63     0  00:05           0        1.33       0.002
  WS02006249           JUNCTION      0.00   824.67     0  00:05           0        1.35       1.186
  WS02006251           JUNCTION      0.08   460.09     0  00:05     0.00222        1.34      -1.253
  WS02006252           JUNCTION      0.00   400.00     0  00:05           0        1.32      -1.083
  WS02006256           JUNCTION      0.00   300.00     0  00:15           0       0.531      -6.505
  WSF200               JUNCTION      0.00   446.21     0  02:24           0        2.09       0.025
  YS02001580           JUNCTION      0.00    81.39     0  01:42           0     0.00401       1.549
  YS02001583           JUNCTION      0.00   107.29     0  01:42           0      0.0151      -4.198
  YS02001586           JUNCTION    219.96   231.99     0  01:43       0.638        0.65       0.176
  YS02001590           JUNCTION      0.00   231.89     0  01:43           0       0.637      -0.017
  YS02001593           JUNCTION      0.00   231.74     0  01:43           0       0.637       0.028
  YS02001596           JUNCTION      0.00   232.07     0  01:43           0       0.637      -0.015
  YS02001600           JUNCTION      0.00   232.42     0  01:43           0       0.637       0.016
  YS02001601           JUNCTION    443.14   670.88     0  01:43       0.948        1.59       0.056
  YS02001602           JUNCTION      0.00   553.73     0  01:42           0        1.52       0.031
  YS02001605           JUNCTION      0.00   553.47     0  01:41           0        1.52       0.030
  YS02001607           JUNCTION      0.00   553.59     0  01:41           0        1.52       0.101
  YS02001610           JUNCTION      0.00   549.94     0  01:42           0        1.52       0.137
  YS02001613           JUNCTION      0.00   558.24     0  01:42           0        1.52       0.085
  YS02001616           JUNCTION      0.00   574.80     0  01:42           0        1.52       0.011
  YS02001619           JUNCTION    373.17   913.61     0  01:42       0.993        2.51      -0.015
  YS02001622           JUNCTION      0.00   892.20     0  01:42           0        2.51      -0.011
  YS02001625           JUNCTION      0.00   897.41     0  01:42           0        2.51       0.375
  YS02001629           JUNCTION      0.00   898.51     0  01:42           0         2.5       0.031
  YS02001633           JUNCTION    313.35  1199.20     0  01:43       0.673        3.18       0.104
  YS02001641           JUNCTION      0.00  1210.11     0  01:43           0        3.18       0.085
  YS02001644           JUNCTION    284.39  1495.21     0  01:43       0.577        3.75       0.083
  YS02001647           JUNCTION      0.00  1498.51     0  01:43           0        3.74       0.010
  YS02001649           JUNCTION      0.00  1765.48     0  01:44           0        4.24       0.014
  YS02001652           JUNCTION      0.00   315.42     0  01:44           0       0.505      -0.404
  YS02001655           JUNCTION      0.15   281.97     0  01:40     0.00443       0.507       0.337
  YS02001658           JUNCTION      0.00   281.84     0  01:40           0       0.502      -0.006
  YS02001661           JUNCTION      0.00   281.59     0  01:40           0       0.503       0.080
  YS02001664           JUNCTION    281.73   281.73     0  01:40       0.503       0.503      -0.020
  YS02001745           JUNCTION    198.15   198.15     0  01:40       0.322       0.322      -0.009
  YS02001748           JUNCTION      0.04   198.11     0  01:40      0.0013       0.324       0.004
  YS02001751           JUNCTION      0.01   198.06     0  01:40    0.000317       0.324       0.325
  YS02001754           JUNCTION      0.26   200.97     0  01:41     0.00749        0.33      -0.420
  YS02001757           JUNCTION      0.00  2392.26     0  01:44           0        5.72       0.066
  YS02001759           JUNCTION    269.60   561.34     0  01:46       0.439        1.14      -0.012
  YS02001762           JUNCTION      0.00   347.14     0  01:46           0       0.703       0.030
  YS02001765           JUNCTION      0.00   338.49     0  01:47           0       0.703       0.025
  YS02001767           JUNCTION      0.54   349.56     0  01:47      0.0154       0.703       0.038
  YS02001770           JUNCTION    372.53   372.53     0  01:41       0.689       0.715      -0.010
  YS02001774           JUNCTION      0.00    60.77     0  01:45           0      0.0357       3.480
  YS02001779           JUNCTION      0.01    39.62     0  01:45    0.000144      0.0088       0.240
  YS02001783           JUNCTION      0.00   926.61     0  01:46           0        2.18       0.011
  YS02001784           JUNCTION      1.06   927.61     0  01:46      0.0305        2.21       0.022
  YS02001786           JUNCTION      0.06   928.06     0  01:47     0.00162        2.21       0.029
  YS02001788           JUNCTION      0.07   928.64     0  01:47     0.00204        2.21       0.018
  YS02001790           JUNCTION      0.15   932.25     0  01:46     0.00446        2.22       0.041
  YS02001791           JUNCTION      0.00   992.19     0  01:47           0        2.22      -0.010
  YS02001793           JUNCTION      0.00   951.29     0  01:47           0        2.22       0.012
  YS02001882           JUNCTION      0.00    29.01     0  01:44           0       0.013       5.268
  YS02001884           JUNCTION      0.00    79.77     0  01:39           0      0.0477       5.590
  YS02001887           JUNCTION    319.26   319.26     0  01:39       0.478       0.511       0.850
  YS02001890           JUNCTION      0.00   289.19     0  01:41           0       0.471       1.076
  YS02001895           JUNCTION      0.00   270.60     0  01:41           0       0.466       0.371
  YS02001898           JUNCTION      0.00   240.86     0  01:41           0       0.464       0.070
  YS02001901           JUNCTION      0.00   226.01     0  01:45           0       0.469       0.703
  YS02001904           JUNCTION      0.00   221.22     0  01:45           0       0.483       0.600
  YS02001907           JUNCTION      0.00   647.87     0  01:51           0        1.56       1.134
  YS02001910           JUNCTION      0.00   442.48     0  01:47           0        1.08       0.648
  YS02001915           JUNCTION    309.97   443.62     0  01:47       0.652        1.08       0.149
  YS02001918           JUNCTION      0.00   174.45     0  01:47           0       0.427       0.082
  YS02001920           JUNCTION      2.87   171.38     0  01:45      0.0827       0.429       0.261
  YS02001923           JUNCTION      0.04   142.98     0  01:44     0.00109       0.346      -0.002
  YS02001926           JUNCTION      0.05   143.10     0  01:44      0.0015       0.345       0.087
  YS02001929           JUNCTION    143.10   143.10     0  01:44       0.344       0.344      -0.012
  YS02006553           JUNCTION      0.00   645.37     0  01:49           0        1.55       0.749
  YS02006556           JUNCTION      0.00   645.45     0  01:49           0        1.57       0.519
  YS02006558           JUNCTION    381.52   926.73     0  01:47       0.692        2.23       0.149
  YS02006561           JUNCTION      0.00   926.77     0  01:47           0        2.18       0.001
  YS02163301           JUNCTION      0.00   885.93     0  01:43           0        2.51       0.055
  YS02163601           JUNCTION      0.11  1200.97     0  01:43     0.00317        3.17       0.154
  YS02164001           JUNCTION      0.00  1203.50     0  01:43           0        3.17       0.071
  CC-1                 OUTFALL       0.00   683.00     0  01:40           0        1.08       0.000
  CC-2                 OUTFALL       0.00   683.00     0  00:15           0        4.18       0.000
  JK-1                 OUTFALL       0.00  1000.00     0  00:05           0        0.74       0.000
  JK-2                 OUTFALL       0.00  1000.00     0  00:05           0        1.08       0.000
  WSC                  OUTFALL       0.00   463.06     0  02:26           0        2.61       0.000
  CC-storage           STORAGE       0.00  2336.58     0  01:47           0        7.95      -0.274
  JK-storage           STORAGE       0.00   950.19     0  01:47           0        2.37      -0.731
  
  
  **********************
  Node Surcharge Summary
  **********************
  
  Surcharging occurs when water rises above the top of the highest conduit.
  ---------------------------------------------------------------------
                                               Max. Height   Min. Depth
                                   Hours       Above Crown    Below Rim
  Node                 Type      Surcharged         Meters       Meters
  ---------------------------------------------------------------------
  WS02006109           JUNCTION        0.30          0.199        1.621
  WS02006110           JUNCTION        0.02          0.061        1.789
  WS02006111           JUNCTION        0.01          0.087        1.783
  WS02006112           JUNCTION        0.02          1.680        0.000
  WS02006113           JUNCTION        0.01          0.600        1.330
  WS02006115           JUNCTION        0.01          0.642        1.608
  WS02006116           JUNCTION        0.01          0.000        2.290
  WS02006228           JUNCTION        0.30          0.218        1.982
  WS02006229           JUNCTION        0.32          0.251        2.199
  WS02006230           JUNCTION        0.02          0.086        1.484
  WS02006231           JUNCTION        0.04          0.304        1.226
  WS02006232           JUNCTION        0.36          0.919        0.561
  WS02006234           JUNCTION        0.17          1.204        0.036
  WS02006235           JUNCTION        0.31          1.163        0.127
  WS02006238           JUNCTION        0.33          1.182        0.248
  WS02006239           JUNCTION        0.30          1.083        0.207
  WS02006240           JUNCTION        0.30          1.112        0.278
  WS02006242           JUNCTION        0.33          0.820        0.000
  WS02006243           JUNCTION        0.23          0.770        0.000
  WS02006245           JUNCTION        0.22          0.653        0.197
  WS02006247           JUNCTION        0.22          0.550        0.210
  WS02006248           JUNCTION        0.21          0.380        0.000
  WS02006249           JUNCTION        0.21          0.390        0.000
  WS02006251           JUNCTION        0.04          0.331        0.849
  WS02006252           JUNCTION        0.47          1.100        0.000
  WS02006256           JUNCTION        5.96          2.050        0.000
  YS02001580           JUNCTION        0.01          0.359        0.091
  YS02001583           JUNCTION        0.01          0.335        0.165
  YS02001586           JUNCTION        0.24          0.510        0.000
  YS02001590           JUNCTION        0.32          0.729        0.021
  YS02001593           JUNCTION        0.33          0.677        0.163
  YS02001596           JUNCTION        0.42          0.933        0.137
  YS02001600           JUNCTION        0.53          1.183        0.007
  YS02001601           JUNCTION        0.83          1.440        0.000
  YS02001602           JUNCTION        0.72          1.270        0.000
  YS02001605           JUNCTION        0.68          1.180        0.000
  YS02001607           JUNCTION        0.24          0.680        0.000
  YS02001610           JUNCTION        0.27          0.680        0.000
  YS02001613           JUNCTION        0.23          0.700        0.000
  YS02001616           JUNCTION        0.19          0.610        0.000
  YS02001619           JUNCTION        0.17          0.610        0.000
  YS02001622           JUNCTION        0.16          0.592        0.028
  YS02001625           JUNCTION        0.36          0.645        0.135
  YS02001629           JUNCTION        0.01          0.301        0.169
  YS02001633           JUNCTION        0.36          0.597        0.463
  YS02001641           JUNCTION        0.27          0.280        0.820
  YS02001644           JUNCTION        0.20          0.153        0.767
  YS02001783           JUNCTION        0.13          0.065        1.535
  YS02001784           JUNCTION        0.09          0.019        1.471
  YS02001887           JUNCTION        0.11          0.067        0.883
  YS02001890           JUNCTION        0.13          0.094        0.666
  YS02001901           JUNCTION        0.08          0.038        0.832
  YS02001904           JUNCTION        0.04          0.016        0.834
  YS02001907           JUNCTION        0.34          0.346        0.604
  YS02001910           JUNCTION        0.18          0.154        0.946
  YS02006553           JUNCTION        0.36          0.345        0.845
  YS02006556           JUNCTION        0.27          0.257        1.093
  YS02006558           JUNCTION        0.26          0.230        1.170
  YS02163301           JUNCTION        0.35          0.633        0.397
  YS02163601           JUNCTION        0.39          0.497        0.583
  YS02164001           JUNCTION        0.28          0.348        0.752
  
  
  *********************
  Node Flooding Summary
  *********************
  
  Flooding refers to all water that overflows a node, whether it ponds or not.
  --------------------------------------------------------------------------
                                                             Total   Maximum
                                 Maximum   Time of Max       Flood    Ponded
                        Hours       Rate    Occurrence      Volume     Depth
  Node                 Flooded       LPS   days hr:min    10^6 ltr    Meters
  --------------------------------------------------------------------------
  WS02006112              0.01   1547.89      0  00:00       0.047     0.000
  WS02006242              0.01      9.55      0  02:15       0.000     0.000
  WS02006243              0.01     17.10      0  02:02       0.000     0.000
  WS02006248              0.01      3.66      0  02:15       0.000     0.000
  WS02006249              0.03     99.35      0  02:03       0.008     0.000
  WS02006252              0.01      0.91      0  02:00       0.000     0.000
  WS02006256              0.49    285.86      0  04:45       0.124     0.000
  YS02001586              0.01     38.45      0  01:42       0.000     0.000
  YS02001601              0.17    223.85      0  01:43       0.061     0.000
  YS02001602              0.01     12.71      0  01:43       0.000     0.000
  YS02001605              0.01      2.80      0  01:43       0.000     0.000
  YS02001607              0.01      7.19      0  01:43       0.000     0.000
  YS02001610              0.01     17.92      0  01:43       0.000     0.000
  YS02001613              0.01      9.08      0  01:43       0.000     0.000
  YS02001616              0.01      8.38      0  01:43       0.000     0.000
  YS02001619              0.01      8.70      0  01:43       0.000     0.000
  
  
  **********************
  Storage Volume Summary
  **********************
  
  ------------------------------------------------------------------------------------------------
                         Average    Avg   Evap  Exfil     Maximum    Max    Time of Max    Maximum
                          Volume   Pcnt   Pcnt   Pcnt      Volume   Pcnt     Occurrence    Outflow
  Storage Unit           1000 m³   Full   Loss   Loss     1000 m³   Full    days hr:min        LPS
  ------------------------------------------------------------------------------------------------
  CC-storage               1.904   29.7    0.0    0.0       2.919   45.5       0  02:10    1766.00
  JK-storage               0.072   24.6    0.0    0.0       0.165   56.5       0  01:45    2300.00
  
  
  ***********************
  Outfall Loading Summary
  ***********************
  
  -----------------------------------------------------------
                         Flow       Avg       Max       Total
                         Freq      Flow      Flow      Volume
  Outfall Node           Pcnt       LPS       LPS    10^6 ltr
  -----------------------------------------------------------
  CC-1                  12.01    683.00    683.00       1.077
  CC-2                  47.53    683.00    683.00       4.176
  JK-1                   6.22   1000.00   1000.00       0.740
  JK-2                  10.74   1000.00   1000.00       1.083
  WSC                   99.99    143.47    463.06       2.609
  -----------------------------------------------------------
  System                35.30   3509.47   3697.50       9.686
  
  
  ********************
  Link Flow Summary
  ********************
  
  -----------------------------------------------------------------------------
                                 Maximum  Time of Max   Maximum    Max/    Max/
                                  |Flow|   Occurrence   |Veloc|    Full    Full
  Link                 Type          LPS  days hr:min     m/sec    Flow   Depth
  -----------------------------------------------------------------------------
  1                    CONDUIT    463.06     0  02:26      2.68    0.16    0.27
  WS02003060WS02003069 CONDUIT    464.85     0  02:21      1.58    0.18    0.31
  WS02003066WSF200     CONDUIT    446.21     0  02:24      2.72    0.08    0.20
  WS02003067WS02003066 CONDUIT    446.26     0  02:24      1.09    0.14    0.39
  WS02003069WS02003072 CONDUIT    462.81     0  02:22      1.30    0.22    0.35
  WS02003072WS02003073 CONDUIT    461.77     0  02:23      1.35    1.00    0.34
  WS02004401WS02004402 CONDUIT   1171.33     0  00:01      2.51    1.41    0.80
  WS02004402WS02004403 CONDUIT    884.75     0  00:01      2.16    1.27    0.82
  WS02004403WS02004404 CONDUIT    832.43     0  00:01      1.96    0.60    0.87
  WS02004404WS02004405 CONDUIT    776.45     0  00:01      2.26    7.61    0.91
  WS02004405WS02004406 CONDUIT    711.76     0  00:02      2.15    1.40    0.91
  WS02004406WS02004407 CONDUIT    462.95     0  02:18      0.95    0.21    0.59
  WS02004407WS02004409 CONDUIT    460.09     0  02:19      1.95    0.16    0.44
  WS02004409WS02004410 CONDUIT    458.09     0  02:19      1.31    0.59    0.61
  WS02004410WS02004411 CONDUIT    455.12     0  02:19      1.19    0.62    0.63
  WS02004411WS02004412 CONDUIT    453.98     0  02:20      1.08    0.64    0.64
  WS02004412WS02004413 CONDUIT    450.34     0  02:20      1.10    0.30    0.72
  WS02004413WS02003067 CONDUIT    446.19     0  02:24      1.00    0.19    0.55
  WS02006109WS02006110 CONDUIT   1306.78     0  00:00      3.14    2.51    1.00
  WS02006110WS02006113 CONDUIT    552.11     0  02:04      1.33    0.50    1.00
  WS02006111WS02006112 CONDUIT   2307.30     0  00:00      9.18    1.10    0.91
  WS02006112WS02006115 CONDUIT    899.27     0  00:00      1.16    0.53    1.00
  WS02006113WS02006111 CONDUIT   1176.04     0  00:00      2.45    1.41    1.00
  WS02006115WS02006116 CONDUIT   1098.16     0  00:01      1.72    1.41    1.00
  WS02006116WS02004401 CONDUIT   1677.78     0  00:00      2.92    2.31    0.77
  WS02006228WS02006109 CONDUIT    543.07     0  02:04      1.40    2.37    1.00
  WS02006229WS02006228 CONDUIT    542.23     0  02:04      1.24    1.80    1.00
  WS02006230WS02006229 CONDUIT    541.28     0  02:04      1.41   12.05    1.00
  WS02006231WS02006230 CONDUIT    537.50     0  02:15      1.46    8.15    1.00
  WS02006232WS02006231 CONDUIT    542.93     0  02:15      1.44    1.14    1.00
  WS02006234WS02006232 CONDUIT    542.09     0  02:15      1.41    1.10    1.00
  WS02006235WS02006234 CONDUIT    541.44     0  02:15      1.41    5.71    1.00
  WS02006238WS02006235 CONDUIT    422.28     0  02:05      1.67    0.94    1.00
  WS02006239WS02006238 CONDUIT    421.09     0  02:05      1.27    1.35    1.00
  WS02006240WS02006239 CONDUIT    419.89     0  02:05      1.33    1.32    1.00
  WS02006242WS02006240 CONDUIT    417.93     0  02:05      1.17    1.66    1.00
  WS02006243WS02006242 CONDUIT    417.41     0  02:05      1.45    0.89    1.00
  WS02006245WS02006243 CONDUIT    418.22     0  02:05      1.46    1.24    1.00
  WS02006247WS02006245 CONDUIT    418.37     0  02:05      1.42    3.32    1.00
  WS02006248WS02006247 CONDUIT    417.56     0  02:05      1.53    0.91    1.00
  WS02006249WS02006248 CONDUIT    417.63     0  00:05      1.54    2.29    1.00
  WS02006251WS02006249 CONDUIT    824.67     0  00:05      2.86    2.38    1.00
  WS02006252WS02006251 CONDUIT    460.01     0  00:05     16.56    1.69    1.00
  WS02006256WS02006235 CONDUIT    288.60     0  01:40      4.21    3.05    1.00
  WSF200WS02003060     CONDUIT    448.25     0  02:21      1.97    0.10    0.26
  YS02001580YS02001583 CONDUIT     81.39     0  01:42      0.60    0.32    1.00
  YS02001583YS02001586 CONDUIT    103.10     0  01:41      0.47    0.16    1.00
  YS02001586YS02001590 CONDUIT    231.89     0  01:43      1.30    0.41    1.00
  YS02001590YS02001593 CONDUIT    231.74     0  01:43      1.02    1.45    1.00
  YS02001593YS02001596 CONDUIT    232.07     0  01:43      1.68    0.37    1.00
  YS02001596YS02001600 CONDUIT    232.42     0  01:43      1.16    0.45    1.00
  YS02001600YS02001601 CONDUIT    232.32     0  01:43      0.82    0.40    1.00
  YS02001601YS02001602 CONDUIT    553.73     0  01:42      1.96    2.00    1.00
  YS02001602YS02001605 CONDUIT    553.47     0  01:41      1.96   11.71    1.00
  YS02001605YS02001607 CONDUIT    553.59     0  01:41      1.96    3.04    1.00
  YS02001607YS02001610 CONDUIT    549.94     0  01:42      0.75    0.52    1.00
  YS02001610YS02001613 CONDUIT    558.24     0  01:42      0.72    0.64    1.00
  YS02001613YS02001616 CONDUIT    574.80     0  01:42      0.74    0.49    1.00
  YS02001616YS02001619 CONDUIT    549.16     0  01:42      0.76    0.95    1.00
  YS02001619YS02001622 CONDUIT    892.20     0  01:42      1.47    1.31    1.00
  YS02001622YS02001625 CONDUIT    897.41     0  01:42      1.14    0.48    1.00
  YS02001625YS02001629 CONDUIT    898.51     0  01:42      1.15    0.43    1.00
  YS02001629YS02163301 CONDUIT    885.93     0  01:43      1.13    1.09    1.00
  YS02001633YS02163601 CONDUIT   1200.86     0  01:43      1.53    1.26    1.00
  YS02001641YS02001644 CONDUIT   1213.95     0  01:43      1.55    3.92    1.00
  YS02001644YS02001647 CONDUIT   1498.51     0  01:43      2.06    0.88    0.88
  YS02001647YS02001649 CONDUIT   1517.36     0  01:43      2.32    0.80    0.79
  YS02001649YS02001757 CONDUIT   1761.24     0  01:45      2.53    1.07    0.83
  YS02001652YS02001649 CONDUIT    343.85     0  01:44      1.11    0.17    0.74
  YS02001655YS02001652 CONDUIT    315.42     0  01:44      1.81    0.15    0.50
  YS02001658YS02001655 CONDUIT    281.82     0  01:40      1.92    0.12    0.31
  YS02001661YS02001658 CONDUIT    281.84     0  01:40      2.07    0.11    0.23
  YS02001664YS02001661 CONDUIT    281.59     0  01:40      1.86    0.09    0.25
  YS02001745YS02001748 CONDUIT    198.06     0  01:40      1.96    0.08    0.19
  YS02001748YS02001751 CONDUIT    198.05     0  01:40      1.64    0.10    0.21
  YS02001751YS02001754 CONDUIT    200.71     0  01:41      1.66    0.10    0.32
  YS02001754YS02001757 CONDUIT    225.72     0  01:45      0.85    0.09    0.66
  YS02001757CaochengTiaoxuchi CONDUIT   2336.58     0  01:47      3.83    1.01    0.81
  YS02001759YS02001757 CONDUIT    553.86     0  01:47      1.28    0.39    0.78
  YS02001762YS02001759 CONDUIT    364.88     0  01:46      0.67    0.42    0.72
  YS02001765YS02001762 CONDUIT    347.14     0  01:46      0.78    0.33    0.69
  YS02001767YS02001765 CONDUIT    338.49     0  01:47      0.93    0.43    0.65
  YS02001770YS02001767 CONDUIT    349.03     0  01:47      0.93    1.38    0.65
  YS02001774YS02001770 CONDUIT     60.77     0  01:45      0.21    0.04    0.68
  YS02001779YS02001774 CONDUIT     39.62     0  01:45      0.10    0.02    0.60
  YS02001783YS02001784 CONDUIT    926.55     0  01:46      1.84    1.28    1.00
  YS02001784YS02001785 CONDUIT    928.00     0  01:47      1.93    2.16    0.91
  YS02001786YS02001788 CONDUIT    928.57     0  01:47      2.34    1.79    0.74
  YS02001788YS02001790 CONDUIT    932.10     0  01:46      2.47    0.69    0.71
  YS02001790YS02001791 CONDUIT    992.19     0  01:47      3.09    1.08    0.61
  YS02001791YS02001793 CONDUIT    951.29     0  01:47      6.22    0.41    0.35
  YS02001793JiankangQianchi CONDUIT    950.19     0  01:47      1.96    0.08    0.59
  YS02001882YS02001884 CONDUIT     29.01     0  01:44      0.13    0.03    0.96
  YS02001884YS02001887 CONDUIT     79.77     0  01:39      0.16    0.11    1.00
  YS02001887YS02001890 CONDUIT    289.19     0  01:41      0.40    0.49    1.00
  YS02001890YS02001895 CONDUIT    270.60     0  01:41      0.40    0.13    0.95
  YS02001895YS02001898 CONDUIT    240.86     0  01:41      0.52    0.42    0.89
  YS02001898YS02001901 CONDUIT    226.01     0  01:45      0.34    0.15    0.95
  YS02001901YS02001904 CONDUIT    221.22     0  01:45      0.40    0.34    1.00
  YS02001904YS02001907 CONDUIT    220.16     0  01:45      0.30    0.08    1.00
  YS02001907YS02006553 CONDUIT    645.37     0  01:49      0.72    0.76    1.00
  YS02001910YS02001907 CONDUIT    442.93     0  01:47      0.56    0.25    1.00
  YS02001915YS02001910 CONDUIT    442.48     0  01:47      0.57    0.22    0.98
  YS02001918YS02001915 CONDUIT    182.88     0  01:50      0.44    0.10    0.78
  YS02001920YS02001918 CONDUIT    174.45     0  01:47      0.72    0.17    0.64
  YS02001923YS02001920 CONDUIT    168.51     0  01:45      0.82    0.08    0.54
  YS02001926YS02001923 CONDUIT    142.94     0  01:44      0.88    0.20    0.26
  YS02001929YS02001926 CONDUIT    143.05     0  01:44      0.96    0.07    0.24
  YS02006553YS02006556 CONDUIT    645.45     0  01:49      0.82    0.55    1.00
  YS02006556YS02006558 CONDUIT    645.73     0  01:49      0.82    0.51    1.00
  YS02006558YS02006561 CONDUIT    926.77     0  01:47      3.52    2.05    0.88
  YS02006561YS02001783 CONDUIT    926.61     0  01:46      2.19    0.48    0.78
  YS02163301YS02001633 CONDUIT    886.88     0  01:43      1.13    0.83    1.00
  YS02163601YS02164001 CONDUIT   1203.50     0  01:43      1.53    1.07    1.00
  YS02164001YS02001641 CONDUIT   1210.11     0  01:43      1.54    1.65    1.00
  CC-R1                PUMP       683.00     0  01:40              1.00
  CC-R2                PUMP       683.00     0  00:15              1.00
  CC-S1                PUMP       200.00     0  00:05              1.00
  CC-S2                PUMP       200.00     0  00:05              1.00
  JK-R1                PUMP      1000.00     0  00:05              1.00
  JK-R2                PUMP      1000.00     0  00:05              1.00
  JK-S                 PUMP       300.00     0  00:15              1.00
  
  
  ***************************
  Flow Classification Summary
  ***************************
  
  -------------------------------------------------------------------------------------
                      Adjusted    ---------- Fraction of Time in Flow Class ---------- 
                       /Actual         Up    Down  Sub   Sup   Up    Down  Norm  Inlet 
  Conduit               Length    Dry  Dry   Dry   Crit  Crit  Crit  Crit  Ltd   Ctrl  
  -------------------------------------------------------------------------------------
  1                       1.00   0.00  0.00  0.00  0.00  1.00  0.00  0.00  0.29  0.00
  WS02003060WS02003069    1.00   0.00  0.00  0.00  0.97  0.03  0.00  0.00  0.89  0.00
  WS02003066WSF200        1.00   0.03  0.00  0.00  0.00  0.97  0.00  0.00  0.94  0.00
  WS02003067WS02003066    1.00   0.02  0.01  0.00  0.97  0.00  0.00  0.00  0.00  0.00
  WS02003069WS02003072    1.00   0.00  0.00  0.00  0.99  0.01  0.00  0.00  0.93  0.00
  WS02003072WS02003073    1.00   0.00  0.00  0.00  0.00  0.00  0.00  1.00  0.00  0.00
  WS02004401WS02004402    1.00   0.00  0.00  0.00  1.00  0.00  0.00  0.00  0.00  0.00
  WS02004402WS02004403    1.00   0.00  0.00  0.00  1.00  0.00  0.00  0.00  0.00  0.00
  WS02004403WS02004404    1.00   0.00  0.00  0.00  1.00  0.00  0.00  0.00  0.00  0.00
  WS02004404WS02004405    1.00   0.00  0.00  0.00  1.00  0.00  0.00  0.00  0.00  0.00
  WS02004405WS02004406    1.00   0.00  0.00  0.00  1.00  0.00  0.00  0.00  0.00  0.00
  WS02004406WS02004407    1.00   0.00  0.00  0.00  1.00  0.00  0.00  0.00  0.00  0.00
  WS02004407WS02004409    1.00   0.00  0.00  0.00  0.99  0.01  0.00  0.00  0.99  0.00
  WS02004409WS02004410    1.00   0.00  0.00  0.00  0.99  0.00  0.00  0.00  0.00  0.00
  WS02004410WS02004411    1.00   0.01  0.00  0.00  0.99  0.00  0.00  0.00  0.00  0.00
  WS02004411WS02004412    1.00   0.01  0.00  0.00  0.99  0.00  0.00  0.00  0.00  0.00
  WS02004412WS02004413    1.00   0.01  0.00  0.00  0.99  0.00  0.00  0.00  0.00  0.00
  WS02004413WS02003067    1.00   0.01  0.01  0.00  0.00  0.00  0.98  0.00  0.00  0.00
  WS02006109WS02006110    1.00   0.00  0.00  0.00  1.00  0.00  0.00  0.00  0.00  0.00
  WS02006110WS02006113    1.00   0.00  0.00  0.00  1.00  0.00  0.00  0.00  0.00  0.00
  WS02006111WS02006112    1.00   0.00  0.00  0.00  1.00  0.00  0.00  0.00  1.00  0.00
  WS02006112WS02006115    1.00   0.00  0.00  0.00  1.00  0.00  0.00  0.00  0.00  0.00
  WS02006113WS02006111    1.00   0.00  0.00  0.00  0.01  0.99  0.00  0.00  0.07  0.00
  WS02006115WS02006116    1.00   0.00  0.00  0.00  1.00  0.00  0.00  0.00  0.00  0.00
  WS02006116WS02004401    1.00   0.00  0.00  0.00  1.00  0.00  0.00  0.00  0.00  0.00
  WS02006228WS02006109    1.00   0.00  0.00  0.00  1.00  0.00  0.00  0.00  0.00  0.00
  WS02006229WS02006228    1.00   0.00  0.00  0.00  1.00  0.00  0.00  0.00  0.00  0.00
  WS02006230WS02006229    1.00   0.00  0.00  0.00  1.00  0.00  0.00  0.00  0.04  0.00
  WS02006231WS02006230    1.00   0.00  0.00  0.00  0.07  0.00  0.93  0.00  0.00  0.00
  WS02006232WS02006231    1.00   0.00  0.00  0.00  0.99  0.00  0.01  0.00  0.00  0.00
  WS02006234WS02006232    1.00   0.00  0.00  0.00  0.99  0.00  0.00  0.00  0.09  0.00
  WS02006235WS02006234    1.00   0.01  0.00  0.00  0.86  0.00  0.12  0.00  0.00  0.00
  WS02006238WS02006235    1.00   0.01  0.00  0.00  0.98  0.00  0.00  0.00  0.01  0.00
  WS02006239WS02006238    1.00   0.01  0.00  0.00  0.98  0.00  0.00  0.00  0.21  0.00
  WS02006240WS02006239    1.00   0.01  0.00  0.00  0.60  0.00  0.00  0.39  0.07  0.00
  WS02006242WS02006240    1.00   0.01  0.00  0.00  0.98  0.00  0.01  0.00  0.00  0.00
  WS02006243WS02006242    1.00   0.01  0.00  0.00  0.98  0.00  0.00  0.01  0.78  0.00
  WS02006245WS02006243    1.00   0.01  0.00  0.00  0.67  0.00  0.00  0.32  0.00  0.00
  WS02006247WS02006245    1.00   0.01  0.00  0.00  0.96  0.00  0.00  0.03  0.00  0.00
  WS02006248WS02006247    1.00   0.01  0.00  0.00  0.97  0.00  0.00  0.02  0.62  0.00
  WS02006249WS02006248    1.00   0.00  0.01  0.00  0.26  0.00  0.73  0.00  0.00  0.00
  WS02006251WS02006249    1.00   0.00  0.00  0.00  0.99  0.01  0.00  0.00  0.74  0.00
  WS02006252WS02006251    1.00   0.01  0.51  0.00  0.01  0.00  0.48  0.00  0.00  0.00
  WS02006256WS02006235    1.00   0.01  0.00  0.00  0.96  0.03  0.00  0.00  0.01  0.00
  WSF200WS02003060        1.00   0.00  0.03  0.00  0.60  0.37  0.00  0.00  0.83  0.00
  YS02001580YS02001583    1.00   0.21  0.66  0.00  0.13  0.00  0.00  0.00  0.75  0.00
  YS02001583YS02001586    1.00   0.47  0.34  0.00  0.19  0.00  0.00  0.00  0.75  0.00
  YS02001586YS02001590    1.00   0.13  0.00  0.00  0.33  0.05  0.00  0.49  0.33  0.00
  YS02001590YS02001593    1.00   0.13  0.01  0.00  0.05  0.00  0.81  0.00  0.00  0.00
  YS02001593YS02001596    1.00   0.14  0.00  0.00  0.07  0.01  0.00  0.79  0.02  0.00
  YS02001596YS02001600    1.00   0.14  0.00  0.00  0.13  0.02  0.00  0.71  0.06  0.00
  YS02001600YS02001601    1.00   0.13  0.01  0.00  0.86  0.00  0.00  0.00  0.65  0.00
  YS02001601YS02001602    1.00   0.13  0.02  0.00  0.86  0.00  0.00  0.00  0.00  0.00
  YS02001602YS02001605    1.00   0.14  0.00  0.00  0.86  0.00  0.00  0.00  0.00  0.00
  YS02001605YS02001607    1.00   0.15  0.00  0.00  0.85  0.00  0.00  0.00  0.00  0.00
  YS02001607YS02001610    1.00   0.13  0.01  0.00  0.85  0.00  0.00  0.00  0.02  0.00
  YS02001610YS02001613    1.00   0.13  0.00  0.00  0.87  0.00  0.00  0.00  0.02  0.00
  YS02001613YS02001616    1.00   0.13  0.00  0.00  0.87  0.00  0.00  0.00  0.01  0.00
  YS02001616YS02001619    1.00   0.13  0.00  0.00  0.87  0.00  0.00  0.00  0.00  0.00
  YS02001619YS02001622    1.00   0.13  0.00  0.00  0.87  0.00  0.00  0.00  0.32  0.00
  YS02001622YS02001625    1.00   0.13  0.00  0.00  0.87  0.00  0.00  0.00  0.06  0.00
  YS02001625YS02001629    1.00   0.13  0.06  0.00  0.08  0.00  0.72  0.00  0.00  0.00
  YS02001629YS02163301    1.00   0.17  0.01  0.00  0.82  0.00  0.00  0.00  0.00  0.00
  YS02001633YS02163601    1.00   0.00  0.01  0.00  0.99  0.00  0.00  0.00  0.16  0.00
  YS02001641YS02001644    1.00   0.00  0.01  0.00  0.99  0.00  0.00  0.00  0.00  0.00
  YS02001644YS02001647    1.00   0.00  0.19  0.00  0.81  0.00  0.00  0.00  0.00  0.00
  YS02001647YS02001649    1.00   0.00  0.19  0.00  0.46  0.36  0.00  0.00  0.61  0.00
  YS02001649YS02001757    1.00   0.00  0.00  0.00  0.61  0.39  0.00  0.00  0.63  0.00
  YS02001652YS02001649    1.00   0.00  0.00  0.00  0.96  0.04  0.00  0.00  0.80  0.00
  YS02001655YS02001652    1.00   0.00  0.00  0.00  0.10  0.02  0.00  0.88  0.08  0.00
  YS02001658YS02001655    1.00   0.00  0.15  0.00  0.57  0.28  0.00  0.00  0.80  0.00
  YS02001661YS02001658    1.00   0.15  0.00  0.00  0.42  0.43  0.00  0.00  0.79  0.00
  YS02001664YS02001661    1.00   0.13  0.00  0.00  0.79  0.08  0.00  0.00  0.87  0.00
  YS02001745YS02001748    1.00   0.00  0.00  0.00  0.00  0.00  0.00  1.00  0.00  0.00
  YS02001748YS02001751    1.00   0.00  0.00  0.00  0.75  0.25  0.00  0.00  0.86  0.00
  YS02001751YS02001754    1.00   0.00  0.00  0.00  0.05  0.01  0.00  0.94  0.05  0.00
  YS02001754YS02001757    1.00   0.00  0.00  0.00  1.00  0.00  0.00  0.00  0.93  0.00
  YS02001757CaochengTiaoxuchi    1.00   0.00  0.00  0.00  0.97  0.03  0.00  0.00  0.96  0.00
  YS02001759YS02001757    1.00   0.00  0.00  0.00  1.00  0.00  0.00  0.00  0.71  0.00
  YS02001762YS02001759    1.00   0.00  0.00  0.00  1.00  0.00  0.00  0.00  0.05  0.00
  YS02001765YS02001762    1.00   0.00  0.00  0.00  1.00  0.00  0.00  0.00  0.80  0.00
  YS02001767YS02001765    1.00   0.00  0.00  0.00  1.00  0.00  0.00  0.00  0.00  0.00
  YS02001770YS02001767    1.00   0.00  0.00  0.00  1.00  0.00  0.00  0.00  0.00  0.00
  YS02001774YS02001770    1.00   0.00  0.14  0.00  0.66  0.00  0.19  0.00  0.04  0.00
  YS02001779YS02001774    1.00   0.00  0.00  0.00  1.00  0.00  0.00  0.00  0.86  0.00
  YS02001783YS02001784    1.00   0.00  0.19  0.00  0.81  0.00  0.00  0.00  0.58  0.00
  YS02001784YS02001785    1.00   0.00  0.00  0.00  1.00  0.00  0.00  0.00  0.18  0.00
  YS02001786YS02001788    1.00   0.00  0.00  0.00  0.78  0.22  0.00  0.00  0.00  0.00
  YS02001788YS02001790    1.00   0.00  0.00  0.00  0.20  0.80  0.00  0.00  0.89  0.00
  YS02001790YS02001791    1.00   0.00  0.00  0.00  0.01  0.99  0.00  0.00  0.16  0.00
  YS02001791YS02001793    1.00   0.00  0.00  0.00  0.00  1.00  0.00  0.00  0.00  0.00
  YS02001793JiankangQianchi    1.00   0.00  0.00  0.00  1.00  0.00  0.00  0.00  1.00  0.00
  YS02001882YS02001884    1.00   0.17  0.01  0.00  0.82  0.00  0.00  0.00  0.00  0.00
  YS02001884YS02001887    1.00   0.06  0.05  0.00  0.89  0.00  0.00  0.00  0.00  0.00
  YS02001887YS02001890    1.00   0.00  0.00  0.00  0.97  0.00  0.03  0.00  0.00  0.00
  YS02001890YS02001895    1.00   0.00  0.18  0.00  0.82  0.00  0.00  0.00  0.00  0.00
  YS02001895YS02001898    1.00   0.18  0.00  0.00  0.80  0.00  0.01  0.00  0.00  0.00
  YS02001898YS02001901    1.00   0.18  0.00  0.00  0.82  0.00  0.00  0.00  0.01  0.00
  YS02001901YS02001904    1.00   0.18  0.00  0.00  0.82  0.00  0.00  0.00  0.00  0.00
  YS02001904YS02001907    1.00   0.00  0.18  0.00  0.82  0.00  0.00  0.00  0.00  0.00
  YS02001907YS02006553    1.00   0.00  0.02  0.00  0.98  0.00  0.00  0.00  0.00  0.00
  YS02001910YS02001907    1.00   0.00  0.00  0.00  0.97  0.00  0.00  0.03  0.12  0.00
  YS02001915YS02001910    1.00   0.00  0.00  0.00  0.97  0.03  0.00  0.00  0.18  0.00
  YS02001918YS02001915    1.00   0.00  0.00  0.00  0.98  0.02  0.00  0.00  0.80  0.00
  YS02001920YS02001918    1.00   0.00  0.00  0.00  1.00  0.00  0.00  0.00  0.01  0.00
  YS02001923YS02001920    1.00   0.00  0.00  0.00  1.00  0.00  0.00  0.00  0.97  0.00
  YS02001926YS02001923    1.00   0.00  0.07  0.00  0.00  0.00  0.93  0.00  0.00  0.00
  YS02001929YS02001926    1.00   0.00  0.13  0.00  0.87  0.00  0.00  0.00  0.87  0.00
  YS02006553YS02006556    1.00   0.01  0.00  0.00  0.99  0.00  0.00  0.00  0.03  0.00
  YS02006556YS02006558    1.00   0.00  0.00  0.00  1.00  0.00  0.00  0.00  0.00  0.00
  YS02006558YS02006561    1.00   0.19  0.00  0.00  0.00  0.81  0.00  0.00  0.21  0.00
  YS02006561YS02001783    1.00   0.19  0.00  0.00  0.04  0.77  0.00  0.00  0.73  0.00
  YS02163301YS02001633    1.00   0.00  0.17  0.00  0.83  0.00  0.00  0.00  0.00  0.00
  YS02163601YS02164001    1.00   0.00  0.08  0.00  0.92  0.00  0.00  0.00  0.00  0.00
  YS02164001YS02001641    1.00   0.01  0.07  0.00  0.92  0.00  0.00  0.00  0.06  0.00
  
  
  *************************
  Conduit Surcharge Summary
  *************************
  
  ----------------------------------------------------------------------------
                                                           Hours        Hours 
                         --------- Hours Full --------   Above Full   Capacity
  Conduit                Both Ends  Upstream  Dnstream   Normal Flow   Limited
  ----------------------------------------------------------------------------
  WS02004401WS02004402        0.01      0.01      0.01      0.01         0.01
  WS02004402WS02004403        0.01      0.01      0.01      0.01         0.01
  WS02004404WS02004405        0.01      0.01      0.01      1.55         0.01
  WS02004405WS02004406        0.01      0.01      0.01      0.01         0.01
  WS02006109WS02006110        0.02      0.02      0.36      0.03         0.01
  WS02006110WS02006113        0.01      0.01      0.34      0.01         0.01
  WS02006111WS02006112        0.01      0.01      0.59      0.01         0.01
  WS02006112WS02006115        0.01      0.01      0.01      0.01         0.01
  WS02006113WS02006111        0.01      0.01      0.01      0.01         0.01
  WS02006115WS02006116        0.01      0.01      0.01      0.01         0.01
  WS02006116WS02004401        0.01      0.01      0.01      0.01         0.01
  WS02006228WS02006109        0.30      0.36      0.30      0.87         0.30
  WS02006229WS02006228        0.30      0.31      0.30      0.60         0.30
  WS02006230WS02006229        0.47      0.56      0.47      1.89         0.47
  WS02006231WS02006230        0.02      0.02      0.05      1.60         0.01
  WS02006232WS02006231        0.04      0.04      0.36      0.05         0.01
  WS02006234WS02006232        0.29      0.29      0.36      0.05         0.04
  WS02006235WS02006234        0.17      0.17      0.31      1.46         0.01
  WS02006238WS02006235        0.33      0.33      0.36      0.01         0.01
  WS02006239WS02006238        0.30      0.31      0.33      0.34         0.20
  WS02006240WS02006239        0.29      0.30      0.30      0.33         0.20
  WS02006242WS02006240        0.30      0.30      0.37      0.48         0.01
  WS02006243WS02006242        0.24      0.24      0.33      0.01         0.01
  WS02006245WS02006243        0.22      0.22      0.23      0.31         0.18
  WS02006247WS02006245        0.22      0.22      0.22      1.32         0.22
  WS02006248WS02006247        0.21      0.21      0.22      0.01         0.01
  WS02006249WS02006248        0.21      0.21      0.21      1.30         0.01
  WS02006251WS02006249        0.20      0.21      0.21      0.39         0.19
  WS02006252WS02006251        0.43      0.43      0.46      0.43         0.01
  WS02006256WS02006235        1.49      1.51      5.85      0.55         0.01
  YS02001580YS02001583        0.01      0.01      0.02      0.01         0.01
  YS02001583YS02001586        0.01      0.01      0.24      0.01         0.01
  YS02001586YS02001590        0.25      0.25      0.32      0.01         0.01
  YS02001590YS02001593        0.33      0.33      0.34      0.33         0.01
  YS02001593YS02001596        0.33      0.33      0.42      0.01         0.01
  YS02001596YS02001600        0.45      0.45      0.53      0.01         0.01
  YS02001600YS02001601        0.57      0.57      0.83      0.01         0.01
  YS02001601YS02001602        0.72      0.72      0.87      0.56         0.01
  YS02001602YS02001605        0.68      0.68      0.72      1.72         0.01
  YS02001605YS02001607        0.64      0.68      0.64      0.78         0.64
  YS02001607YS02001610        0.24      0.24      0.27      0.01         0.01
  YS02001610YS02001613        0.23      0.23      0.27      0.01         0.01
  YS02001613YS02001616        0.19      0.19      0.23      0.01         0.01
  YS02001616YS02001619        0.17      0.17      0.19      0.01         0.01
  YS02001619YS02001622        0.16      0.17      0.16      0.35         0.16
  YS02001622YS02001625        0.16      0.16      0.36      0.01         0.01
  YS02001625YS02001629        0.01      0.01      0.36      0.01         0.01
  YS02001629YS02163301        0.34      0.34      0.35      0.21         0.20
  YS02001633YS02163601        0.36      0.36      0.39      0.26         0.26
  YS02001641YS02001644        0.20      0.27      0.20      0.92         0.20
  YS02001644YS02001647        0.01      0.01      0.20      0.01         0.01
  YS02001649YS02001757        0.01      0.01      0.01      0.03         0.01
  YS02001757CaochengTiaoxuchi        0.01      0.01      0.21      0.03         0.01
  YS02001770YS02001767        0.01      0.01      0.01      0.24         0.01
  YS02001783YS02001784        0.09      0.13      0.09      0.29         0.09
  YS02001784YS02001785        0.01      0.09      0.01      0.47         0.01
  YS02001786YS02001788        0.01      0.01      0.01      0.37         0.01
  YS02001790YS02001791        0.01      0.01      0.01      0.06         0.01
  YS02001793JiankangQianchi        0.01      0.01      7.00      0.01         0.01
  YS02001884YS02001887        0.08      0.08      0.11      0.01         0.01
  YS02001887YS02001890        0.13      0.13      0.15      0.01         0.01
  YS02001890YS02001895        0.01      0.01      0.18      0.01         0.01
  YS02001898YS02001901        0.01      0.01      0.08      0.01         0.01
  YS02001901YS02001904        0.04      0.04      0.08      0.01         0.01
  YS02001904YS02001907        0.04      0.04      0.36      0.01         0.01
  YS02001907YS02006553        0.49      0.49      0.53      0.01         0.01
  YS02001910YS02001907        0.18      0.18      0.34      0.01         0.01
  YS02001915YS02001910        0.01      0.01      0.18      0.01         0.01
  YS02006553YS02006556        0.27      0.27      0.36      0.01         0.01
  YS02006556YS02006558        0.31      0.31      0.37      0.01         0.01
  YS02006558YS02006561        0.01      0.26      0.01      0.43         0.01
  YS02006561YS02001783        0.01      0.01      0.13      0.01         0.01
  YS02163301YS02001633        0.35      0.35      0.38      0.01         0.01
  YS02163601YS02164001        0.28      0.28      0.39      0.09         0.01
  YS02164001YS02001641        0.27      0.28      0.27      0.44         0.27
  
  
  ***************
  Pumping Summary
  ***************
  
  ---------------------------------------------------------------------------------------------------------
                                                  Min       Avg       Max     Total     Power    % Time Off
                        Percent   Number of      Flow      Flow      Flow    Volume     Usage    Pump Curve
  Pump                 Utilized   Start-Ups       LPS       LPS       LPS  10^6 ltr     Kw-hr    Low   High
  ---------------------------------------------------------------------------------------------------------
  CC-R1                    5.47           7      0.00    683.00    683.00     1.075     18.50    0.0   69.3
  CC-R2                   21.40          44      0.00    683.00    683.00     4.210     71.67    0.0   92.8
  CC-S1                   15.69          31      0.00    200.00    200.00     0.904      5.70    0.0    0.0
  CC-S2                    7.41           7      0.00    200.00    200.00     0.427      2.85    0.0    0.0
  JK-R1                    2.60          24      0.00   1000.00   1000.00     0.749      5.13    0.0    0.0
  JK-R2                    3.76          20      0.00   1000.00   1000.00     1.084      9.11    0.0    0.0
  JK-S                     6.09          39      0.00    300.00    300.00     0.526      9.98    0.0    0.0
  

  Analysis begun on:  Fri Aug  4 11:25:38 2023
  Analysis ended on:  Fri Aug  4 11:25:47 2023
  Total elapsed time: 00:00:09