
  OWA STORM WATER MANAGEMENT MODEL - VERSION v5.2.3 (OWA 2023-06-06)
  ------------------------------------------------------------

  WARNING 04: minimum elevation drop used for Conduit WS02004404WS02004405
  WARNING 03: negative offset ignored for Link YS02001904YS02001907
  
  ****************
  Analysis Options
  ****************
  Flow Units ............... LPS
  Process Models:
    Rainfall/Runoff ........ YES
    RDII ................... NO
    Snowmelt ............... NO
    Groundwater ............ NO
    Flow Routing ........... YES
    Ponding Allowed ........ NO
    Water Quality .......... NO
  Infiltration Method ...... HORTON
  Flow Routing Method ...... DYNWAVE
  Surcharge Method ......... EXTRAN
  Starting Date ............ 08/28/2015 08:00:00
  Ending Date .............. 08/28/2015 16:00:00
  Antecedent Dry Days ...... 8.0
  Report Time Step ......... 00:01:00
  Wet Time Step ............ 00:01:00
  Dry Time Step ............ 00:01:00
  Routing Time Step ........ 30.00 sec
  Variable Time Step ....... YES
  Maximum Trials ........... 8
  Number of Threads ........ 2
  Head Tolerance ........... 0.001500 m
  
  
  **************************        Volume         Depth
  Runoff Quantity Continuity     hectare-m            mm
  **************************     ---------       -------
  Total Precipitation ......         1.615        48.704
  Evaporation Loss .........         0.000         0.000
  Infiltration Loss ........         0.097         2.913
  Surface Runoff ...........         1.486        44.806
  Final Storage ............         0.033         0.994
  Continuity Error (%) .....        -0.019
  
  
  **************************        Volume        Volume
  Flow Routing Continuity        hectare-m      10^6 ltr
  **************************     ---------     ---------
  Dry Weather Inflow .......         0.025         0.251
  Wet Weather Inflow .......         1.487        14.866
  Groundwater Inflow .......         0.000         0.000
  RDII Inflow ..............         0.000         0.000
  External Inflow ..........         0.083         0.834
  External Outflow .........         1.401        14.011
  Flooding Loss ............         0.288         2.885
  Evaporation Loss .........         0.000         0.000
  Exfiltration Loss ........         0.000         0.000
  Initial Stored Volume ....         0.243         2.431
  Final Stored Volume ......         0.182         1.820
  Continuity Error (%) .....        -1.819
  
  
  *************************
  Highest Continuity Errors
  *************************
  Node YS02001884 (5.10%)
  Node YS02001583 (-4.56%)
  Node WS02006256 (-4.13%)
  Node YS02001774 (1.67%)
  Node WS02006111 (-1.18%)
  
  
  ***************************
  Time-Step Critical Elements
  ***************************
  Link WS02006252WS02006251 (41.15%)
  Link WS02006238WS02006235 (20.87%)
  Link WS02004404WS02004405 (12.53%)
  Link WS02003066WSF200 (6.64%)
  Link YS02001791YS02001793 (4.67%)
  
  
  ********************************
  Highest Flow Instability Indexes
  ********************************
  Link WS02006113WS02006111 (31)
  Link WS02006256WS02006235 (19)
  Link WS02006238WS02006235 (14)
  Link WS02006229WS02006228 (13)
  Link WS02006111WS02006112 (12)
  
  
  *********************************
  Most Frequent Nonconverging Nodes
  *********************************
  Node CC-1 (11.95%)
  Node CC-2 (11.95%)
  Node JK-1 (11.95%)
  Node JK-2 (11.95%)
  Node WSC (11.95%)
  
  
  *************************
  Routing Time Step Summary
  *************************
  Minimum Time Step           :     0.01 sec
  Average Time Step           :     2.46 sec
  Maximum Time Step           :    30.00 sec
  % of Time in Steady State   :     0.00
  Average Iterations per Step :     3.21
  % of Steps Not Converging   :    11.95
  Time Step Frequencies       :
     30.000 - 13.228 sec      :     0.01 %
     13.228 -  5.833 sec      :     9.72 %
      5.833 -  2.572 sec      :    28.82 %
      2.572 -  1.134 sec      :    17.78 %
      1.134 -  0.500 sec      :    43.67 %
  
  
  ***************************
  Subcatchment Runoff Summary
  ***************************
  
  ------------------------------------------------------------------------------------------------------------------------------
                            Total      Total      Total      Total     Imperv       Perv      Total       Total     Peak  Runoff
                           Precip      Runon       Evap      Infil     Runoff     Runoff     Runoff      Runoff   Runoff   Coeff
  Subcatchment                 mm         mm         mm         mm         mm         mm         mm    10^6 ltr      LPS
  ------------------------------------------------------------------------------------------------------------------------------
  sub60                     48.70       0.00       0.00       1.75      41.65       4.10      45.75        0.60   397.79   0.939
  sub61                     48.70       0.00       0.00       2.54      39.29       5.74      45.03        0.83   551.57   0.925
  sub62                     48.70       0.00       0.00       1.17      43.52       2.73      46.25        1.27   779.52   0.950
  sub63                     48.70       0.00       0.00       4.70      33.61       9.42      43.03        0.98   616.98   0.883
  sub64                     48.70       0.00       0.00       2.38      40.19       4.93      45.12        1.08   633.47   0.926
  sub65                     48.70       0.00       0.00       2.06      41.12       4.28      45.39        1.25   707.04   0.932
  sub66                     48.70       0.00       0.00       5.81      33.50       8.31      41.82        1.95   916.91   0.859
  sub67                     48.70       0.00       0.00       1.12      43.56       2.78      46.33        0.86   602.53   0.951
  sub68                     48.70       0.00       0.00       2.10      40.69       4.72      45.41        1.25   797.12   0.932
  sub69                     48.70       0.00       0.00       1.87      41.28       5.44      46.72        1.73   941.74   0.959
  sub70                     48.70       0.00       0.00       6.21      31.98      10.35      42.33        1.22   515.53   0.869
  sub71                     48.70       0.00       0.00       1.20      43.48       2.70      46.18        1.21   686.52   0.948
  sub72                     48.70       0.00       0.00       1.07      43.89       2.34      46.23        0.64   331.55   0.949
  
  
  ******************
  Node Depth Summary
  ******************
  
  ---------------------------------------------------------------------------------
                                 Average  Maximum  Maximum  Time of Max    Reported
                                   Depth    Depth      HGL   Occurrence   Max Depth
  Node                 Type       Meters   Meters   Meters  days hr:min      Meters
  ---------------------------------------------------------------------------------
  WS02003060           JUNCTION     0.19     0.38     5.32     0  02:51        0.38
  WS02003066           JUNCTION     0.17     0.30     5.85     0  02:50        0.30
  WS02003067           JUNCTION     0.45     0.70     6.02     0  02:50        0.70
  WS02003069           JUNCTION     0.21     0.43     5.01     0  02:51        0.43
  WS02003072           JUNCTION     0.26     0.50     4.87     0  02:52        0.50
  WS02003073           JUNCTION     0.14     0.30     4.36     0  02:53        0.30
  WS02004401           JUNCTION     0.54     0.85     6.85     0  02:48        0.85
  WS02004402           JUNCTION     0.57     0.88     6.84     0  02:48        0.88
  WS02004403           JUNCTION     0.60     0.89     6.82     0  02:48        0.89
  WS02004404           JUNCTION     0.68     0.96     6.81     0  02:48        0.96
  WS02004405           JUNCTION     0.67     0.96     6.81     0  02:48        0.96
  WS02004406           JUNCTION     0.69     0.96     6.79     0  02:48        0.96
  WS02004407           JUNCTION     0.15     0.30     6.61     0  02:48        0.30
  WS02004409           JUNCTION     0.32     0.67     6.44     0  02:49        0.67
  WS02004410           JUNCTION     0.35     0.68     6.40     0  02:49        0.68
  WS02004411           JUNCTION     0.37     0.69     6.37     0  02:49        0.69
  WS02004412           JUNCTION     0.40     0.70     6.34     0  02:49        0.70
  WS02004413           JUNCTION     0.57     0.86     6.33     0  02:50        0.86
  WS02006109           JUNCTION     0.59     1.02     7.63     0  02:22        0.97
  WS02006110           JUNCTION     0.60     0.98     7.56     0  02:22        0.92
  WS02006111           JUNCTION     0.15     0.90     7.60     0  00:00        0.40
  WS02006112           JUNCTION     0.69     2.68     8.56     0  00:00        1.14
  WS02006113           JUNCTION     0.23     1.40     8.29     0  00:00        0.46
  WS02006115           JUNCTION     0.42     1.65     7.79     0  00:00        0.86
  WS02006116           JUNCTION     0.51     1.06     7.10     0  00:00        0.83
  WS02006228           JUNCTION     0.57     1.05     7.70     0  02:22        1.01
  WS02006229           JUNCTION     0.54     1.06     7.75     0  02:22        1.02
  WS02006230           JUNCTION     0.52     1.18     7.92     0  02:22        1.10
  WS02006231           JUNCTION     0.35     0.92     8.05     0  02:22        0.85
  WS02006232           JUNCTION     0.47     1.62     8.66     0  00:15        1.05
  WS02006234           JUNCTION     0.38     1.63     8.79     0  00:15        1.07
  WS02006235           JUNCTION     0.42     1.27     8.43     0  00:15        1.16
  WS02006238           JUNCTION     0.44     1.28     8.42     0  00:15        1.19
  WS02006239           JUNCTION     0.40     1.34     8.55     0  00:15        1.17
  WS02006240           JUNCTION     0.37     1.82     9.11     0  00:15        1.13
  WS02006242           JUNCTION     0.43     1.38     8.64     0  00:15        1.22
  WS02006243           JUNCTION     0.35     1.37     8.79     0  00:15        1.13
  WS02006245           JUNCTION     0.35     1.13     8.62     0  02:22        1.12
  WS02006247           JUNCTION     0.37     1.14     8.64     0  02:22        1.14
  WS02006248           JUNCTION     0.33     1.09     8.67     0  02:30        1.09
  WS02006249           JUNCTION     0.36     1.09     8.69     0  02:21        1.09
  WS02006251           JUNCTION     0.35     1.38     9.05     0  02:21        1.12
  WS02006252           JUNCTION     0.27     1.50     9.74     0  02:00        0.69
  WS02006256           JUNCTION     0.87     2.35     9.28     0  00:09        2.35
  WSF200               JUNCTION     0.13     0.29     5.52     0  02:50        0.29
  YS02001580           JUNCTION     0.10     1.05     9.59     0  02:07        0.80
  YS02001583           JUNCTION     0.13     1.14     9.64     0  02:07        0.84
  YS02001586           JUNCTION     0.22     1.13     9.30     0  02:07        1.13
  YS02001590           JUNCTION     0.33     1.40     9.26     0  02:07        1.37
  YS02001593           JUNCTION     0.26     1.34     9.20     0  02:07        1.29
  YS02001596           JUNCTION     0.35     1.68     9.10     0  02:07        1.65
  YS02001600           JUNCTION     0.43     1.87     9.00     0  02:07        1.87
  YS02001601           JUNCTION     0.62     2.06     8.90     0  02:06        2.06
  YS02001602           JUNCTION     0.53     1.87     8.77     0  02:06        1.87
  YS02001605           JUNCTION     0.49     1.78     8.68     0  02:06        1.78
  YS02001607           JUNCTION     0.47     1.68     8.53     0  02:06        1.65
  YS02001610           JUNCTION     0.51     1.68     8.48     0  02:06        1.68
  YS02001613           JUNCTION     0.47     1.70     8.54     0  02:06        1.65
  YS02001616           JUNCTION     0.40     1.61     8.52     0  02:06        1.58
  YS02001619           JUNCTION     0.38     1.61     8.54     0  02:06        1.58
  YS02001622           JUNCTION     0.37     1.60     8.51     0  02:06        1.56
  YS02001625           JUNCTION     0.61     1.78     8.38     0  02:06        1.78
  YS02001629           JUNCTION     0.50     1.85     8.40     0  02:06        1.85
  YS02001633           JUNCTION     0.57     2.06     8.51     0  02:11        2.01
  YS02001641           JUNCTION     0.54     1.96     8.40     0  02:11        1.93
  YS02001644           JUNCTION     0.53     1.92     8.35     0  02:11        1.92
  YS02001647           JUNCTION     0.31     1.81     8.42     0  02:12        1.69
  YS02001649           JUNCTION     0.35     2.05     8.44     0  02:12        1.85
  YS02001652           JUNCTION     0.23     2.16     8.76     0  02:12        1.68
  YS02001655           JUNCTION     0.17     2.20     9.05     0  02:11        1.46
  YS02001658           JUNCTION     0.13     2.30     9.44     0  02:12        1.20
  YS02001661           JUNCTION     0.15     1.07     8.48     0  02:13        0.96
  YS02001664           JUNCTION     0.07     0.51     8.43     0  02:13        0.39
  YS02001745           JUNCTION     0.07     0.70     8.21     0  02:13        0.67
  YS02001748           JUNCTION     0.11     2.27     9.35     0  02:12        1.06
  YS02001751           JUNCTION     0.14     2.20     9.08     0  02:12        1.25
  YS02001754           JUNCTION     0.19     2.13     8.74     0  02:12        1.51
  YS02001757           JUNCTION     0.35     2.11     8.37     0  02:12        1.85
  YS02001759           JUNCTION     0.29     2.12     8.48     0  02:12        1.85
  YS02001762           JUNCTION     0.29     2.08     8.48     0  02:12        1.86
  YS02001765           JUNCTION     0.27     2.05     8.50     0  02:12        1.84
  YS02001767           JUNCTION     0.27     2.03     8.52     0  02:11        1.84
  YS02001770           JUNCTION     0.28     1.95     8.45     0  02:12        1.89
  YS02001774           JUNCTION     0.34     2.00     8.43     0  02:12        1.96
  YS02001779           JUNCTION     0.18     1.68     8.37     0  02:11        1.68
  YS02001783           JUNCTION     0.28     1.47     7.61     0  02:10        1.22
  YS02001784           JUNCTION     0.29     1.24     7.31     0  02:10        1.11
  YS02001786           JUNCTION     0.25     0.97     7.00     0  02:10        0.87
  YS02001788           JUNCTION     0.18     0.62     6.60     0  02:11        0.62
  YS02001790           JUNCTION     0.21     0.72     6.37     0  02:17        0.71
  YS02001791           JUNCTION     0.13     0.44     5.91     0  02:14        0.43
  YS02001793           JUNCTION     0.07     0.22     5.05     0  02:20        0.21
  YS02001882           JUNCTION     0.35     1.83     8.55     0  02:08        1.66
  YS02001884           JUNCTION     0.43     1.93     8.55     0  02:08        1.75
  YS02001887           JUNCTION     0.51     1.94     8.48     0  02:08        1.82
  YS02001890           JUNCTION     0.53     1.81     8.32     0  02:08        1.81
  YS02001895           JUNCTION     0.32     1.57     8.32     0  02:20        1.56
  YS02001898           JUNCTION     0.33     1.58     8.31     0  02:20        1.56
  YS02001901           JUNCTION     0.43     1.69     8.30     0  02:20        1.66
  YS02001904           JUNCTION     0.41     1.65     8.28     0  02:20        1.64
  YS02001907           JUNCTION     0.71     1.96     8.25     0  02:10        1.96
  YS02001910           JUNCTION     0.52     2.02     8.53     0  02:10        1.94
  YS02001915           JUNCTION     0.35     2.00     8.72     0  02:08        1.89
  YS02001918           JUNCTION     0.19     1.81     8.88     0  02:10        1.81
  YS02001920           JUNCTION     0.28     2.14     9.15     0  02:10        2.01
  YS02001923           JUNCTION     0.15     2.03     9.29     0  02:10        1.91
  YS02001926           JUNCTION     0.18     1.90     9.35     0  02:10        1.90
  YS02001929           JUNCTION     0.10     1.78     9.47     0  02:10        1.78
  YS02006553           JUNCTION     0.71     2.03     8.32     0  02:10        1.97
  YS02006556           JUNCTION     0.69     2.08     8.39     0  02:10        1.93
  YS02006558           JUNCTION     0.73     2.13     8.40     0  02:10        1.98
  YS02006561           JUNCTION     0.17     1.23     7.89     0  02:10        0.88
  YS02163301           JUNCTION     0.52     1.94     8.46     0  02:11        1.91
  YS02163601           JUNCTION     0.60     2.07     8.47     0  02:11        2.02
  YS02164001           JUNCTION     0.53     1.99     8.44     0  02:11        1.93
  CC-1                 OUTFALL      0.00     0.00     0.00     0  00:00        0.00
  CC-2                 OUTFALL      0.00     0.00     0.00     0  00:00        0.00
  JK-1                 OUTFALL      0.00     0.00     0.00     0  00:00        0.00
  JK-2                 OUTFALL      0.00     0.00     0.00     0  00:00        0.00
  WSC                  OUTFALL      0.14     0.30     0.97     0  02:46        0.30
  CC-storage           STORAGE      0.71     1.36     6.86     0  02:37        1.36
  JK-storage           STORAGE      1.42     4.22     5.02     0  02:34        4.16
  
  
  *******************
  Node Inflow Summary
  *******************
  
  -------------------------------------------------------------------------------------------------
                                  Maximum  Maximum                  Lateral       Total        Flow
                                  Lateral    Total  Time of Max      Inflow      Inflow     Balance
                                   Inflow   Inflow   Occurrence      Volume      Volume       Error
  Node                 Type           LPS      LPS  days hr:min    10^6 ltr    10^6 ltr     Percent
  -------------------------------------------------------------------------------------------------
  WS02003060           JUNCTION     16.53   553.85     0  02:50       0.476        3.71       0.067
  WS02003066           JUNCTION      0.00   537.20     0  02:50           0        3.23       0.043
  WS02003067           JUNCTION      0.00   537.16     0  02:50           0        3.24       0.131
  WS02003069           JUNCTION      0.32   554.05     0  02:51     0.00922        3.71       0.109
  WS02003072           JUNCTION      0.00   553.69     0  02:51           0        3.71       0.189
  WS02003073           JUNCTION      1.82   555.29     0  02:52      0.0524        3.75       0.154
  WS02004401           JUNCTION      0.00  1677.78     0  00:00           0        3.35       0.348
  WS02004402           JUNCTION      0.00  1171.33     0  00:01           0        3.33       0.341
  WS02004403           JUNCTION      0.00   884.75     0  00:01           0        3.32       0.332
  WS02004404           JUNCTION      0.16   832.59     0  00:01     0.00467        3.31       0.283
  WS02004405           JUNCTION      0.04   776.49     0  00:01      0.0011        3.31       0.375
  WS02004406           JUNCTION      0.00   711.76     0  00:02           0        3.29       0.670
  WS02004407           JUNCTION      0.00   539.04     0  02:48           0        3.27       0.037
  WS02004409           JUNCTION      0.00   538.59     0  02:48           0        3.27       0.087
  WS02004410           JUNCTION      0.00   538.16     0  02:49           0        3.27       0.141
  WS02004411           JUNCTION      0.00   537.80     0  02:49           0        3.26       0.181
  WS02004412           JUNCTION      0.00   537.68     0  02:49           0        3.26       0.234
  WS02004413           JUNCTION      0.00   537.52     0  02:50           0        3.25       0.426
  WS02006109           JUNCTION      1.23  1308.01     0  00:00      0.0354        3.28       0.272
  WS02006110           JUNCTION      0.00   546.74     0  02:22           0        3.25      -1.100
  WS02006111           JUNCTION      0.00  1176.04     0  00:00           0        3.28      -1.166
  WS02006112           JUNCTION      0.00  2307.30     0  00:00           0        3.32      -0.020
  WS02006113           JUNCTION      0.00   555.05     0  02:22           0        3.24      -1.513
  WS02006115           JUNCTION      0.00   899.27     0  00:00           0        3.29      -0.967
  WS02006116           JUNCTION      0.00  1098.16     0  00:01           0        3.32      -0.690
  WS02006228           JUNCTION      0.00   545.11     0  02:22           0        3.22       0.117
  WS02006229           JUNCTION      0.00   544.82     0  02:22           0        3.21       0.305
  WS02006230           JUNCTION     10.28   548.24     0  02:22       0.296         3.2       0.060
  WS02006231           JUNCTION      0.00   538.53     0  02:22           0        2.89       0.042
  WS02006232           JUNCTION      0.00   538.91     0  02:22           0         2.9       0.278
  WS02006234           JUNCTION      0.00   538.15     0  02:22           0        2.88      -0.557
  WS02006235           JUNCTION      0.00   551.52     0  02:20           0        3.01       0.416
  WS02006238           JUNCTION      0.00   417.30     0  02:55           0        2.38      -0.303
  WS02006239           JUNCTION      0.00   417.14     0  02:55           0        2.29      -0.185
  WS02006240           JUNCTION      0.00   416.32     0  02:55           0        2.25      -0.001
  WS02006242           JUNCTION      0.00   415.95     0  02:55           0        2.25       0.091
  WS02006243           JUNCTION      0.00   415.32     0  02:55           0        2.24      -0.232
  WS02006245           JUNCTION      0.00   414.69     0  02:55           0        2.26       0.567
  WS02006247           JUNCTION      0.00   413.77     0  02:55           0        2.26      -0.026
  WS02006248           JUNCTION      0.00   417.63     0  00:05           0        2.26      -0.061
  WS02006249           JUNCTION      0.00   824.67     0  00:05           0        2.41       0.738
  WS02006251           JUNCTION      0.08   460.09     0  00:05     0.00222         2.4      -0.707
  WS02006252           JUNCTION      0.00   400.00     0  00:05           0        2.38      -0.773
  WS02006256           JUNCTION      0.00   300.00     0  00:15           0       0.895      -3.963
  WSF200               JUNCTION      0.00   537.26     0  02:50           0        3.23       0.015
  YS02001580           JUNCTION      0.00   135.38     0  02:07           0      0.0042      -1.573
  YS02001583           JUNCTION      0.00   162.40     0  02:07           0      0.0153      -4.357
  YS02001586           JUNCTION    515.53   515.53     0  02:15        1.22        1.23       0.096
  YS02001590           JUNCTION      0.00   319.42     0  02:20           0         1.1      -0.045
  YS02001593           JUNCTION      0.00   319.20     0  02:20           0         1.1      -0.002
  YS02001596           JUNCTION      0.00   318.04     0  02:20           0         1.1      -0.014
  YS02001600           JUNCTION      0.00   318.19     0  02:20           0         1.1       0.001
  YS02001601           JUNCTION    941.74  1259.27     0  02:14        1.73        2.83       0.006
  YS02001602           JUNCTION      0.00   516.23     0  02:06           0           2       0.015
  YS02001605           JUNCTION      0.00   516.47     0  02:06           0        1.92       0.024
  YS02001607           JUNCTION      0.00   516.31     0  02:06           0        1.92       0.094
  YS02001610           JUNCTION      0.00   518.86     0  02:06           0        1.94       0.100
  YS02001613           JUNCTION      0.00   522.31     0  02:06           0        1.67       0.092
  YS02001616           JUNCTION      0.00   525.93     0  02:06           0        1.67       0.017
  YS02001619           JUNCTION    916.91   932.61     0  02:09        1.95         3.6      -0.006
  YS02001622           JUNCTION      0.00   932.70     0  02:09           0        3.58      -0.004
  YS02001625           JUNCTION      0.00  1006.12     0  02:15           0         3.6       0.221
  YS02001629           JUNCTION      0.00   932.32     0  02:09           0        3.14       0.017
  YS02001633           JUNCTION    707.24  1399.07     0  02:10        1.26        4.36       0.076
  YS02001641           JUNCTION      0.00  1398.83     0  02:10           0        4.34       0.062
  YS02001644           JUNCTION    633.51  1823.76     0  02:10        1.09        5.42       0.061
  YS02001647           JUNCTION      0.00  1823.64     0  02:10           0        5.38       0.006
  YS02001649           JUNCTION      0.00  2107.29     0  02:10           0        6.36       0.003
  YS02001652           JUNCTION      0.00   728.90     0  02:13           0       0.981      -0.103
  YS02001655           JUNCTION      0.15   728.43     0  02:13     0.00443       0.981       0.005
  YS02001658           JUNCTION      0.00   726.70     0  02:13           0       0.977      -0.046
  YS02001661           JUNCTION      0.00   821.39     0  02:14           0       0.977       0.030
  YS02001664           JUNCTION    616.98   616.98     0  02:14       0.977       0.977      -0.009
  YS02001745           JUNCTION    397.79   397.79     0  02:13       0.601       0.601       0.236
  YS02001748           JUNCTION      0.04   609.87     0  02:12      0.0013       0.601      -0.369
  YS02001751           JUNCTION      0.01   451.27     0  02:13    0.000317       0.607       0.135
  YS02001754           JUNCTION      0.26   451.68     0  02:13     0.00749       0.618      -0.179
  YS02001757           JUNCTION      0.00  3453.42     0  02:13           0        9.09       0.061
  YS02001759           JUNCTION    551.61  1330.01     0  02:14       0.828        2.11      -0.011
  YS02001762           JUNCTION      0.00   781.30     0  02:14           0        1.28       0.004
  YS02001765           JUNCTION      0.00   781.10     0  02:14           0        1.28       0.005
  YS02001767           JUNCTION      0.54   780.82     0  02:14      0.0154        1.28       0.009
  YS02001770           JUNCTION    779.67   779.67     0  02:14        1.27        1.31      -0.002
  YS02001774           JUNCTION      0.00   318.62     0  02:11           0      0.0606       1.698
  YS02001779           JUNCTION      0.01   322.49     0  02:11    0.000144       0.019      -2.009
  YS02001783           JUNCTION      0.00  1158.09     0  02:13           0        3.41       0.007
  YS02001784           JUNCTION      1.06  1159.48     0  02:13      0.0305        3.44       0.013
  YS02001786           JUNCTION      0.06  1159.31     0  02:13     0.00162        3.45       0.019
  YS02001788           JUNCTION      0.07  1159.30     0  02:13     0.00204        3.45       0.009
  YS02001790           JUNCTION      0.15  1169.31     0  02:12     0.00446        3.45       0.028
  YS02001791           JUNCTION      0.00  1280.90     0  02:17           0        3.45      -0.022
  YS02001793           JUNCTION      0.00  1230.56     0  02:19           0        3.45       0.007
  YS02001882           JUNCTION      0.00    53.17     0  02:08           0      0.0127       5.186
  YS02001884           JUNCTION      0.00    84.25     0  02:08           0      0.0487       5.369
  YS02001887           JUNCTION    602.98   603.07     0  02:13       0.875       0.908       0.494
  YS02001890           JUNCTION      0.00   603.19     0  02:13           0       0.867       0.589
  YS02001895           JUNCTION      0.00   515.24     0  02:15           0       0.845       0.172
  YS02001898           JUNCTION      0.00   515.26     0  02:15           0       0.844       0.040
  YS02001901           JUNCTION      0.00   515.25     0  02:15           0       0.846       0.377
  YS02001904           JUNCTION      0.00   515.26     0  02:15           0        0.85       0.305
  YS02001907           JUNCTION      0.00  1569.39     0  02:15           0        2.77       0.609
  YS02001910           JUNCTION      0.00  1054.38     0  02:15           0        1.92       0.359
  YS02001915           JUNCTION    686.54  1054.05     0  02:15        1.21        1.96       0.077
  YS02001918           JUNCTION      0.00   433.21     0  02:11           0       0.784       0.027
  YS02001920           JUNCTION      2.87   433.04     0  02:11      0.0827       0.768       0.122
  YS02001923           JUNCTION      0.04   394.08     0  02:11     0.00109        0.67      -0.058
  YS02001926           JUNCTION      0.05   534.18     0  02:10      0.0015       0.649       0.021
  YS02001929           JUNCTION    331.55   341.52     0  02:10       0.636       0.637      -0.031
  YS02006553           JUNCTION      0.00   799.95     0  02:26           0        2.18       0.525
  YS02006556           JUNCTION      0.00   800.74     0  02:26           0        2.19       0.345
  YS02006558           JUNCTION    798.00  1171.86     0  02:10        1.28        3.44       0.103
  YS02006561           JUNCTION      0.00  1172.11     0  02:10           0        3.41      -0.005
  YS02163301           JUNCTION      0.00   932.37     0  02:09           0        3.13       0.042
  YS02163601           JUNCTION      0.11  1399.26     0  02:09     0.00317        4.34       0.112
  YS02164001           JUNCTION      0.00  1399.11     0  02:09           0        4.34       0.049
  CC-1                 OUTFALL       0.00   683.00     0  01:45           0        2.63       0.000
  CC-2                 OUTFALL       0.00   683.00     0  00:15           0        4.94       0.000
  JK-1                 OUTFALL       0.00  1000.00     0  00:05           0        1.61       0.000
  JK-2                 OUTFALL       0.00  1000.00     0  00:05           0        1.08       0.000
  WSC                  OUTFALL       0.00   555.12     0  02:46           0        3.75       0.000
  CC-storage           STORAGE       0.00  3453.38     0  02:13           0        11.3      -0.270
  JK-storage           STORAGE       0.00  1238.58     0  02:19           0         3.6      -0.469
  
  
  **********************
  Node Surcharge Summary
  **********************
  
  Surcharging occurs when water rises above the top of the highest conduit.
  ---------------------------------------------------------------------
                                               Max. Height   Min. Depth
                                   Hours       Above Crown    Below Rim
  Node                 Type      Surcharged         Meters       Meters
  ---------------------------------------------------------------------
  WS02006109           JUNCTION        0.92          0.196        1.624
  WS02006110           JUNCTION        0.54          0.067        1.783
  WS02006111           JUNCTION        0.01          0.087        1.783
  WS02006112           JUNCTION        0.52          1.680        0.000
  WS02006113           JUNCTION        0.01          0.600        1.330
  WS02006115           JUNCTION        0.01          0.642        1.608
  WS02006116           JUNCTION        0.01          0.000        2.290
  WS02006228           JUNCTION        0.92          0.217        1.983
  WS02006229           JUNCTION        0.93          0.261        2.189
  WS02006230           JUNCTION        0.54          0.099        1.471
  WS02006231           JUNCTION        0.55          0.212        1.318
  WS02006232           JUNCTION        0.96          0.919        0.561
  WS02006234           JUNCTION        0.62          0.910        0.330
  WS02006235           JUNCTION        0.93          0.556        0.734
  WS02006238           JUNCTION        0.94          0.557        0.873
  WS02006239           JUNCTION        0.93          0.600        0.690
  WS02006240           JUNCTION        0.92          1.112        0.278
  WS02006242           JUNCTION        0.96          0.645        0.175
  WS02006243           JUNCTION        0.91          0.659        0.111
  WS02006245           JUNCTION        0.91          0.423        0.427
  WS02006247           JUNCTION        0.91          0.434        0.326
  WS02006248           JUNCTION        0.90          0.367        0.013
  WS02006249           JUNCTION        0.90          0.390        0.000
  WS02006251           JUNCTION        0.57          0.349        0.831
  WS02006252           JUNCTION        1.28          1.100        0.000
  WS02006256           JUNCTION        6.46          2.050        0.000
  YS02001580           JUNCTION        0.44          0.450        0.000
  YS02001583           JUNCTION        0.45          0.500        0.000
  YS02001586           JUNCTION        0.56          0.510        0.000
  YS02001590           JUNCTION        0.62          0.750        0.000
  YS02001593           JUNCTION        0.63          0.715        0.125
  YS02001596           JUNCTION        0.73          0.953        0.117
  YS02001600           JUNCTION        0.87          1.190        0.000
  YS02001601           JUNCTION        1.23          1.440        0.000
  YS02001602           JUNCTION        1.12          1.270        0.000
  YS02001605           JUNCTION        1.06          1.180        0.000
  YS02001607           JUNCTION        0.58          0.680        0.000
  YS02001610           JUNCTION        0.60          0.680        0.000
  YS02001613           JUNCTION        0.57          0.700        0.000
  YS02001616           JUNCTION        0.53          0.610        0.000
  YS02001619           JUNCTION        0.52          0.610        0.000
  YS02001622           JUNCTION        0.52          0.605        0.015
  YS02001625           JUNCTION        0.68          0.780        0.000
  YS02001629           JUNCTION        0.47          0.470        0.000
  YS02001633           JUNCTION        0.69          1.036        0.024
  YS02001641           JUNCTION        0.61          0.960        0.140
  YS02001644           JUNCTION        0.57          0.920        0.000
  YS02001647           JUNCTION        0.37          0.813        0.087
  YS02001649           JUNCTION        0.45          1.050        0.000
  YS02001652           JUNCTION        0.30          1.130        0.000
  YS02001655           JUNCTION        0.19          1.200        0.000
  YS02001658           JUNCTION        0.07          1.300        0.000
  YS02001661           JUNCTION        0.01          0.004        1.386
  YS02001748           JUNCTION        0.01          1.190        0.000
  YS02001751           JUNCTION        0.11          1.200        0.000
  YS02001754           JUNCTION        0.20          1.080        0.070
  YS02001757           JUNCTION        0.48          1.112        0.098
  YS02001759           JUNCTION        0.39          1.120        0.090
  YS02001762           JUNCTION        0.37          1.080        0.070
  YS02001765           JUNCTION        0.33          1.049        0.051
  YS02001767           JUNCTION        0.31          1.030        0.000
  YS02001770           JUNCTION        0.30          0.920        0.000
  YS02001774           JUNCTION        0.36          1.003        0.047
  YS02001779           JUNCTION        0.22          0.680        0.000
  YS02001783           JUNCTION        0.42          0.667        0.933
  YS02001784           JUNCTION        0.40          0.437        1.053
  YS02001786           JUNCTION        0.30          0.172        1.258
  YS02001882           JUNCTION        0.37          0.830        0.000
  YS02001884           JUNCTION        0.38          0.870        0.000
  YS02001887           JUNCTION        0.41          0.890        0.060
  YS02001890           JUNCTION        0.42          0.760        0.000
  YS02001895           JUNCTION        0.36          0.575        0.175
  YS02001898           JUNCTION        0.35          0.549        0.191
  YS02001901           JUNCTION        0.40          0.690        0.180
  YS02001904           JUNCTION        0.39          0.649        0.201
  YS02001907           JUNCTION        0.63          0.950        0.000
  YS02001910           JUNCTION        0.45          1.019        0.081
  YS02001915           JUNCTION        0.37          1.000        0.000
  YS02001918           JUNCTION        0.29          0.810        0.000
  YS02001920           JUNCTION        0.30          1.140        0.000
  YS02001923           JUNCTION        0.01          0.820        0.000
  YS02001926           JUNCTION        0.02          0.900        0.000
  YS02001929           JUNCTION        0.01          0.780        0.000
  YS02006553           JUNCTION        0.64          1.032        0.158
  YS02006556           JUNCTION        0.54          1.036        0.314
  YS02006558           JUNCTION        0.52          1.030        0.370
  YS02006561           JUNCTION        0.26          0.426        0.724
  YS02163301           JUNCTION        0.67          0.941        0.089
  YS02163601           JUNCTION        0.72          1.075        0.005
  YS02164001           JUNCTION        0.62          0.986        0.114
  
  
  *********************
  Node Flooding Summary
  *********************
  
  Flooding refers to all water that overflows a node, whether it ponds or not.
  --------------------------------------------------------------------------
                                                             Total   Maximum
                                 Maximum   Time of Max       Flood    Ponded
                        Hours       Rate    Occurrence      Volume     Depth
  Node                 Flooded       LPS   days hr:min    10^6 ltr    Meters
  --------------------------------------------------------------------------
  WS02006112              0.01   1547.89      0  00:00       0.047     0.000
  WS02006249              0.56     99.11      0  02:22       0.141     0.000
  WS02006252              0.01      0.91      0  02:16       0.000     0.000
  WS02006256              0.83    285.94      0  05:15       0.282     0.000
  YS02001580              0.01    124.60      0  02:07       0.000     0.000
  YS02001583              0.01     50.14      0  02:07       0.000     0.000
  YS02001586              0.33    197.99      0  02:15       0.126     0.000
  YS02001590              0.01      1.02      0  02:07       0.000     0.000
  YS02001600              0.01      0.57      0  02:07       0.000     0.000
  YS02001601              0.49    861.44      0  02:14       0.829     0.000
  YS02001602              0.37     62.02      0  02:20       0.073     0.000
  YS02001605              0.01      4.88      0  02:06       0.000     0.000
  YS02001607              0.01     13.88      0  02:06       0.000     0.000
  YS02001610              0.31    408.74      0  02:16       0.284     0.000
  YS02001613              0.01      8.15      0  02:06       0.000     0.000
  YS02001616              0.01     33.88      0  02:06       0.000     0.000
  YS02001619              0.01     38.31      0  02:06       0.000     0.000
  YS02001625              0.27   1005.96      0  02:15       0.479     0.000
  YS02001629              0.06    135.02      0  02:06       0.013     0.000
  YS02001644              0.05    310.83      0  02:13       0.031     0.000
  YS02001649              0.01      9.50      0  02:12       0.000     0.000
  YS02001652              0.01     39.56      0  02:12       0.000     0.000
  YS02001655              0.01    136.27      0  02:11       0.000     0.000
  YS02001658              0.01    374.89      0  02:12       0.000     0.000
  YS02001748              0.01    350.30      0  02:12       0.000     0.000
  YS02001751              0.01     37.75      0  02:12       0.000     0.000
  YS02001767              0.01     63.94      0  02:11       0.000     0.000
  YS02001770              0.01      8.07      0  02:12       0.000     0.000
  YS02001779              0.02    295.46      0  02:11       0.002     0.000
  YS02001882              0.01     32.99      0  02:08       0.000     0.000
  YS02001884              0.01      8.77      0  02:08       0.000     0.000
  YS02001890              0.09     96.46      0  02:13       0.017     0.000
  YS02001907              0.24   1186.43      0  02:15       0.575     0.000
  YS02001915              0.01     91.80      0  02:08       0.000     0.000
  YS02001918              0.01    117.53      0  02:11       0.001     0.000
  YS02001920              0.01      7.97      0  02:10       0.000     0.000
  YS02001923              0.01    224.39      0  02:10       0.000     0.000
  YS02001926              0.01    395.00      0  02:10       0.001     0.000
  YS02001929              0.01    280.30      0  02:10       0.001     0.000
  
  
  **********************
  Storage Volume Summary
  **********************
  
  ------------------------------------------------------------------------------------------------
                         Average    Avg   Evap  Exfil     Maximum    Max    Time of Max    Maximum
                          Volume   Pcnt   Pcnt   Pcnt      Volume   Pcnt     Occurrence    Outflow
  Storage Unit           1000 m³   Full   Loss   Loss     1000 m³   Full    days hr:min        LPS
  ------------------------------------------------------------------------------------------------
  CC-storage               1.965   30.7    0.0    0.0       3.793   59.2       0  02:37    1766.00
  JK-storage               0.071   24.5    0.0    0.0       0.212   72.7       0  02:34    2000.00
  
  
  ***********************
  Outfall Loading Summary
  ***********************
  
  -----------------------------------------------------------
                         Flow       Avg       Max       Total
                         Freq      Flow      Flow      Volume
  Outfall Node           Pcnt       LPS       LPS    10^6 ltr
  -----------------------------------------------------------
  CC-1                  26.40    683.00    683.00       2.626
  CC-2                  45.68    683.00    683.00       4.942
  JK-1                   9.95   1000.00   1000.00       1.615
  JK-2                   9.09   1000.00   1000.00       1.079
  WSC                   99.99    170.35    555.12       3.748
  -----------------------------------------------------------
  System                38.22   3536.35   3920.66      14.011
  
  
  ********************
  Link Flow Summary
  ********************
  
  -----------------------------------------------------------------------------
                                 Maximum  Time of Max   Maximum    Max/    Max/
                                  |Flow|   Occurrence   |Veloc|    Full    Full
  Link                 Type          LPS  days hr:min     m/sec    Flow   Depth
  -----------------------------------------------------------------------------
  1                    CONDUIT    555.12     0  02:46      2.83    0.19    0.30
  WS02003060WS02003069 CONDUIT    553.73     0  02:51      1.64    0.22    0.34
  WS02003066WSF200     CONDUIT    537.26     0  02:50      2.85    0.09    0.22
  WS02003067WS02003066 CONDUIT    537.20     0  02:50      1.21    0.17    0.42
  WS02003069WS02003072 CONDUIT    553.69     0  02:51      1.37    0.27    0.39
  WS02003072WS02003073 CONDUIT    553.47     0  02:52      1.44    1.20    0.37
  WS02004401WS02004402 CONDUIT   1171.33     0  00:01      2.51    1.41    0.86
  WS02004402WS02004403 CONDUIT    884.75     0  00:01      2.16    1.27    0.89
  WS02004403WS02004404 CONDUIT    832.43     0  00:01      1.96    0.60    0.93
  WS02004404WS02004405 CONDUIT    776.45     0  00:01      2.26    7.61    0.96
  WS02004405WS02004406 CONDUIT    711.76     0  00:02      2.15    1.40    0.96
  WS02004406WS02004407 CONDUIT    539.04     0  02:48      1.04    0.24    0.63
  WS02004407WS02004409 CONDUIT    538.59     0  02:48      1.95    0.19    0.48
  WS02004409WS02004410 CONDUIT    538.16     0  02:49      1.31    0.70    0.67
  WS02004410WS02004411 CONDUIT    537.80     0  02:49      1.19    0.73    0.69
  WS02004411WS02004412 CONDUIT    537.68     0  02:49      1.08    0.76    0.69
  WS02004412WS02004413 CONDUIT    537.52     0  02:50      1.10    0.36    0.78
  WS02004413WS02003067 CONDUIT    537.16     0  02:50      1.11    0.23    0.59
  WS02006109WS02006110 CONDUIT   1306.78     0  00:00      3.14    2.51    1.00
  WS02006110WS02006113 CONDUIT    555.05     0  02:22      1.33    0.51    1.00
  WS02006111WS02006112 CONDUIT   2307.30     0  00:00      9.18    1.10    0.91
  WS02006112WS02006115 CONDUIT    899.27     0  00:00      1.16    0.53    1.00
  WS02006113WS02006111 CONDUIT   1176.04     0  00:00      2.46    1.41    1.00
  WS02006115WS02006116 CONDUIT   1098.16     0  00:01      1.72    1.41    1.00
  WS02006116WS02004401 CONDUIT   1677.78     0  00:00      2.92    2.31    0.84
  WS02006228WS02006109 CONDUIT    545.61     0  02:22      1.40    2.38    1.00
  WS02006229WS02006228 CONDUIT    545.11     0  02:22      1.24    1.81    1.00
  WS02006230WS02006229 CONDUIT    544.82     0  02:22      1.42   12.12    1.00
  WS02006231WS02006230 CONDUIT    537.96     0  02:22      1.49    8.16    1.00
  WS02006232WS02006231 CONDUIT    538.53     0  02:22      1.40    1.13    1.00
  WS02006234WS02006232 CONDUIT    538.91     0  02:22      1.40    1.09    1.00
  WS02006235WS02006234 CONDUIT    538.15     0  02:22      1.41    5.68    1.00
  WS02006238WS02006235 CONDUIT    414.92     0  02:55      1.67    0.93    1.00
  WS02006239WS02006238 CONDUIT    417.30     0  02:55      1.27    1.34    1.00
  WS02006240WS02006239 CONDUIT    417.14     0  02:55      1.33    1.31    1.00
  WS02006242WS02006240 CONDUIT    416.32     0  02:55      1.17    1.65    1.00
  WS02006243WS02006242 CONDUIT    415.95     0  02:55      1.45    0.89    1.00
  WS02006245WS02006243 CONDUIT    415.32     0  02:55      1.46    1.23    1.00
  WS02006247WS02006245 CONDUIT    414.69     0  02:55      1.42    3.29    1.00
  WS02006248WS02006247 CONDUIT    413.77     0  02:55      1.53    0.90    1.00
  WS02006249WS02006248 CONDUIT    417.63     0  00:05      1.54    2.29    1.00
  WS02006251WS02006249 CONDUIT    824.67     0  00:05      2.86    2.38    1.00
  WS02006252WS02006251 CONDUIT    460.01     0  00:05     16.99    1.69    1.00
  WS02006256WS02006235 CONDUIT    287.82     0  04:10      4.21    3.05    1.00
  WSF200WS02003060     CONDUIT    537.33     0  02:50      2.06    0.12    0.28
  YS02001580YS02001583 CONDUIT    135.38     0  02:07      0.66    0.52    1.00
  YS02001583YS02001586 CONDUIT    156.89     0  02:06      0.67    0.24    1.00
  YS02001586YS02001590 CONDUIT    319.42     0  02:20      1.25    0.56    1.00
  YS02001590YS02001593 CONDUIT    319.20     0  02:20      1.13    2.00    1.00
  YS02001593YS02001596 CONDUIT    318.04     0  02:20      1.74    0.50    1.00
  YS02001596YS02001600 CONDUIT    318.19     0  02:20      1.23    0.62    1.00
  YS02001600YS02001601 CONDUIT    318.43     0  02:20      1.13    0.55    1.00
  YS02001601YS02001602 CONDUIT    516.23     0  02:06      1.83    1.86    1.00
  YS02001602YS02001605 CONDUIT    516.47     0  02:06      1.83   10.93    1.00
  YS02001605YS02001607 CONDUIT    516.31     0  02:06      1.83    2.83    1.00
  YS02001607YS02001610 CONDUIT    518.86     0  02:06      0.66    0.49    1.00
  YS02001610YS02001613 CONDUIT    522.31     0  02:06      0.67    0.60    1.00
  YS02001613YS02001616 CONDUIT    525.93     0  02:06      0.68    0.45    1.00
  YS02001616YS02001619 CONDUIT    501.08     0  02:06      0.67    0.87    1.00
  YS02001619YS02001622 CONDUIT    932.70     0  02:09      1.19    1.37    1.00
  YS02001622YS02001625 CONDUIT    932.43     0  02:09      1.19    0.50    1.00
  YS02001625YS02001629 CONDUIT    932.32     0  02:09      1.19    0.44    1.00
  YS02001629YS02163301 CONDUIT    932.37     0  02:09      1.19    1.15    1.00
  YS02001633YS02163601 CONDUIT   1399.15     0  02:09      1.78    1.47    1.00
  YS02001641YS02001644 CONDUIT   1398.60     0  02:10      1.78    4.52    1.00
  YS02001644YS02001647 CONDUIT   1823.64     0  02:10      2.32    1.07    1.00
  YS02001647YS02001649 CONDUIT   1847.11     0  02:10      2.36    0.98    1.00
  YS02001649YS02001757 CONDUIT   2103.63     0  02:10      2.69    1.28    1.00
  YS02001652YS02001649 CONDUIT    728.93     0  02:14      0.93    0.36    1.00
  YS02001655YS02001652 CONDUIT    728.90     0  02:13      1.30    0.35    1.00
  YS02001658YS02001655 CONDUIT    728.28     0  02:13      1.91    0.31    1.00
  YS02001661YS02001658 CONDUIT    726.70     0  02:13      2.36    0.29    1.00
  YS02001664YS02001661 CONDUIT    821.39     0  02:14      2.36    0.26    0.72
  YS02001745YS02001748 CONDUIT    609.82     0  02:12      2.22    0.23    0.84
  YS02001748YS02001751 CONDUIT    451.26     0  02:13      1.74    0.23    1.00
  YS02001751YS02001754 CONDUIT    451.42     0  02:13      1.45    0.22    1.00
  YS02001754YS02001757 CONDUIT    451.65     0  02:13      0.58    0.18    1.00
  YS02001757CaochengTiaoxuchi CONDUIT   3453.38     0  02:13      4.52    1.49    1.00
  YS02001759YS02001757 CONDUIT   1330.02     0  02:14      1.69    0.95    1.00
  YS02001762YS02001759 CONDUIT    781.49     0  02:14      1.00    0.90    1.00
  YS02001765YS02001762 CONDUIT    781.30     0  02:14      0.99    0.73    1.00
  YS02001767YS02001765 CONDUIT    781.10     0  02:14      0.99    0.98    1.00
  YS02001770YS02001767 CONDUIT    780.29     0  02:14      0.99    3.09    1.00
  YS02001774YS02001770 CONDUIT    318.62     0  02:11      0.41    0.20    1.00
  YS02001779YS02001774 CONDUIT    322.48     0  02:11      0.41    0.16    1.00
  YS02001783YS02001784 CONDUIT   1158.42     0  02:13      2.30    1.60    1.00
  YS02001784YS02001785 CONDUIT   1159.25     0  02:13      2.31    2.70    1.00
  YS02001786YS02001788 CONDUIT   1159.23     0  02:13      2.47    2.23    0.89
  YS02001788YS02001790 CONDUIT   1169.16     0  02:12      2.71    0.86    0.84
  YS02001790YS02001791 CONDUIT   1280.90     0  02:17      3.42    1.39    0.70
  YS02001791YS02001793 CONDUIT   1230.56     0  02:19      6.76    0.53    0.40
  YS02001793JiankangQianchi CONDUIT   1238.58     0  02:19      2.49    0.10    0.61
  YS02001882YS02001884 CONDUIT     53.17     0  02:08      0.10    0.06    1.00
  YS02001884YS02001887 CONDUIT     84.25     0  02:08      0.11    0.11    1.00
  YS02001887YS02001890 CONDUIT    603.19     0  02:13      0.77    1.03    1.00
  YS02001890YS02001895 CONDUIT    515.24     0  02:15      0.66    0.24    1.00
  YS02001895YS02001898 CONDUIT    515.26     0  02:15      0.66    0.89    1.00
  YS02001898YS02001901 CONDUIT    515.25     0  02:15      0.66    0.33    1.00
  YS02001901YS02001904 CONDUIT    515.26     0  02:15      0.66    0.80    1.00
  YS02001904YS02001907 CONDUIT    515.27     0  02:15      0.66    0.18    1.00
  YS02001907YS02006553 CONDUIT    799.95     0  02:26      0.89    0.94    1.00
  YS02001910YS02001907 CONDUIT   1054.82     0  02:15      1.34    0.59    1.00
  YS02001915YS02001910 CONDUIT   1054.38     0  02:15      1.34    0.52    1.00
  YS02001918YS02001915 CONDUIT    433.24     0  02:11      0.55    0.24    1.00
  YS02001920YS02001918 CONDUIT    433.21     0  02:11      0.65    0.42    1.00
  YS02001923YS02001920 CONDUIT    430.17     0  02:11      0.69    0.19    1.00
  YS02001926YS02001923 CONDUIT    407.59     0  02:10      0.95    0.58    1.00
  YS02001929YS02001926 CONDUIT    388.47     0  02:11      1.13    0.18    1.00
  YS02006553YS02006556 CONDUIT    800.74     0  02:26      1.02    0.69    1.00
  YS02006556YS02006558 CONDUIT    803.05     0  02:26      1.02    0.63    1.00
  YS02006558YS02006561 CONDUIT   1172.11     0  02:10      4.15    2.59    1.00
  YS02006561YS02001783 CONDUIT   1158.09     0  02:13      2.30    0.60    1.00
  YS02163301YS02001633 CONDUIT    932.36     0  02:09      1.19    0.88    1.00
  YS02163601YS02164001 CONDUIT   1399.11     0  02:09      1.78    1.24    1.00
  YS02164001YS02001641 CONDUIT   1398.83     0  02:10      1.78    1.91    1.00
  CC-R1                PUMP       683.00     0  01:45              1.00
  CC-R2                PUMP       683.00     0  00:15              1.00
  CC-S1                PUMP       200.00     0  00:05              1.00
  CC-S2                PUMP       200.00     0  00:05              1.00
  JK-R1                PUMP      1000.00     0  00:05              1.00
  JK-R2                PUMP      1000.00     0  00:05              1.00
  JK-S                 PUMP       300.00     0  00:15              1.00
  
  
  ***************************
  Flow Classification Summary
  ***************************
  
  -------------------------------------------------------------------------------------
                      Adjusted    ---------- Fraction of Time in Flow Class ---------- 
                       /Actual         Up    Down  Sub   Sup   Up    Down  Norm  Inlet 
  Conduit               Length    Dry  Dry   Dry   Crit  Crit  Crit  Crit  Ltd   Ctrl  
  -------------------------------------------------------------------------------------
  1                       1.00   0.00  0.00  0.00  0.00  1.00  0.00  0.00  0.33  0.00
  WS02003060WS02003069    1.00   0.00  0.00  0.00  0.96  0.04  0.00  0.00  0.80  0.00
  WS02003066WSF200        1.00   0.03  0.00  0.00  0.00  0.97  0.00  0.00  0.88  0.00
  WS02003067WS02003066    1.00   0.02  0.01  0.00  0.97  0.00  0.00  0.00  0.00  0.00
  WS02003069WS02003072    1.00   0.00  0.00  0.00  0.99  0.01  0.00  0.00  0.85  0.00
  WS02003072WS02003073    1.00   0.00  0.00  0.00  0.00  0.00  0.00  1.00  0.00  0.00
  WS02004401WS02004402    1.00   0.00  0.00  0.00  1.00  0.00  0.00  0.00  0.00  0.00
  WS02004402WS02004403    1.00   0.00  0.00  0.00  1.00  0.00  0.00  0.00  0.00  0.00
  WS02004403WS02004404    1.00   0.00  0.00  0.00  1.00  0.00  0.00  0.00  0.00  0.00
  WS02004404WS02004405    1.00   0.00  0.00  0.00  1.00  0.00  0.00  0.00  0.00  0.00
  WS02004405WS02004406    1.00   0.00  0.00  0.00  1.00  0.00  0.00  0.00  0.00  0.00
  WS02004406WS02004407    1.00   0.00  0.00  0.00  1.00  0.00  0.00  0.00  0.00  0.00
  WS02004407WS02004409    1.00   0.00  0.00  0.00  0.99  0.01  0.00  0.00  0.99  0.00
  WS02004409WS02004410    1.00   0.00  0.00  0.00  0.99  0.00  0.00  0.00  0.00  0.00
  WS02004410WS02004411    1.00   0.01  0.00  0.00  0.99  0.00  0.00  0.00  0.00  0.00
  WS02004411WS02004412    1.00   0.01  0.00  0.00  0.99  0.00  0.00  0.00  0.00  0.00
  WS02004412WS02004413    1.00   0.01  0.00  0.00  0.99  0.00  0.00  0.00  0.00  0.00
  WS02004413WS02003067    1.00   0.01  0.01  0.00  0.00  0.00  0.98  0.00  0.00  0.00
  WS02006109WS02006110    1.00   0.00  0.00  0.00  1.00  0.00  0.00  0.00  0.00  0.00
  WS02006110WS02006113    1.00   0.00  0.00  0.00  1.00  0.00  0.00  0.00  0.00  0.00
  WS02006111WS02006112    1.00   0.00  0.00  0.00  1.00  0.00  0.00  0.00  1.00  0.00
  WS02006112WS02006115    1.00   0.00  0.00  0.00  1.00  0.00  0.00  0.00  0.00  0.00
  WS02006113WS02006111    1.00   0.00  0.00  0.00  0.01  0.99  0.00  0.00  0.09  0.00
  WS02006115WS02006116    1.00   0.00  0.00  0.00  1.00  0.00  0.00  0.00  0.00  0.00
  WS02006116WS02004401    1.00   0.00  0.00  0.00  1.00  0.00  0.00  0.00  0.00  0.00
  WS02006228WS02006109    1.00   0.00  0.00  0.00  1.00  0.00  0.00  0.00  0.00  0.00
  WS02006229WS02006228    1.00   0.00  0.00  0.00  1.00  0.00  0.00  0.00  0.00  0.00
  WS02006230WS02006229    1.00   0.00  0.00  0.00  1.00  0.00  0.00  0.00  0.04  0.00
  WS02006231WS02006230    1.00   0.00  0.00  0.00  0.14  0.00  0.85  0.00  0.00  0.00
  WS02006232WS02006231    1.00   0.00  0.00  0.00  0.99  0.00  0.01  0.00  0.00  0.00
  WS02006234WS02006232    1.00   0.00  0.00  0.00  0.99  0.00  0.00  0.00  0.08  0.00
  WS02006235WS02006234    1.00   0.01  0.00  0.00  0.88  0.00  0.10  0.00  0.00  0.00
  WS02006238WS02006235    1.00   0.01  0.00  0.00  0.98  0.00  0.00  0.00  0.01  0.00
  WS02006239WS02006238    1.00   0.01  0.00  0.00  0.98  0.00  0.00  0.00  0.18  0.00
  WS02006240WS02006239    1.00   0.01  0.00  0.00  0.66  0.00  0.00  0.32  0.06  0.00
  WS02006242WS02006240    1.00   0.01  0.00  0.00  0.97  0.00  0.01  0.00  0.00  0.00
  WS02006243WS02006242    1.00   0.01  0.00  0.00  0.98  0.00  0.00  0.01  0.70  0.00
  WS02006245WS02006243    1.00   0.01  0.00  0.00  0.68  0.00  0.00  0.31  0.00  0.00
  WS02006247WS02006245    1.00   0.01  0.00  0.00  0.96  0.00  0.00  0.03  0.00  0.00
  WS02006248WS02006247    1.00   0.01  0.00  0.00  0.98  0.00  0.00  0.01  0.59  0.00
  WS02006249WS02006248    1.00   0.00  0.01  0.00  0.34  0.00  0.65  0.00  0.00  0.00
  WS02006251WS02006249    1.00   0.00  0.00  0.00  0.99  0.01  0.00  0.00  0.64  0.00
  WS02006252WS02006251    1.00   0.02  0.49  0.00  0.07  0.00  0.42  0.00  0.00  0.00
  WS02006256WS02006235    1.00   0.01  0.00  0.00  0.96  0.03  0.00  0.00  0.01  0.00
  WSF200WS02003060        1.00   0.00  0.03  0.00  0.53  0.44  0.00  0.00  0.75  0.00
  YS02001580YS02001583    1.00   0.26  0.57  0.00  0.17  0.00  0.00  0.00  0.66  0.00
  YS02001583YS02001586    1.00   0.42  0.35  0.00  0.22  0.00  0.00  0.00  0.66  0.00
  YS02001586YS02001590    1.00   0.13  0.00  0.00  0.41  0.04  0.00  0.42  0.38  0.00
  YS02001590YS02001593    1.00   0.13  0.01  0.00  0.09  0.00  0.77  0.00  0.00  0.00
  YS02001593YS02001596    1.00   0.14  0.00  0.00  0.11  0.01  0.00  0.75  0.02  0.00
  YS02001596YS02001600    1.00   0.14  0.00  0.00  0.17  0.01  0.00  0.67  0.05  0.00
  YS02001600YS02001601    1.00   0.13  0.01  0.00  0.86  0.00  0.00  0.00  0.62  0.00
  YS02001601YS02001602    1.00   0.13  0.01  0.00  0.86  0.00  0.00  0.00  0.00  0.00
  YS02001602YS02001605    1.00   0.14  0.00  0.00  0.86  0.00  0.00  0.00  0.00  0.00
  YS02001605YS02001607    1.00   0.14  0.00  0.00  0.86  0.00  0.00  0.00  0.00  0.00
  YS02001607YS02001610    1.00   0.13  0.01  0.00  0.86  0.00  0.00  0.00  0.02  0.00
  YS02001610YS02001613    1.00   0.13  0.00  0.00  0.87  0.00  0.00  0.00  0.01  0.00
  YS02001613YS02001616    1.00   0.13  0.00  0.00  0.87  0.00  0.00  0.00  0.01  0.00
  YS02001616YS02001619    1.00   0.13  0.00  0.00  0.87  0.00  0.00  0.00  0.00  0.00
  YS02001619YS02001622    1.00   0.13  0.00  0.00  0.87  0.00  0.00  0.00  0.29  0.00
  YS02001622YS02001625    1.00   0.13  0.00  0.00  0.87  0.00  0.00  0.00  0.05  0.00
  YS02001625YS02001629    1.00   0.13  0.06  0.00  0.13  0.00  0.68  0.00  0.00  0.00
  YS02001629YS02163301    1.00   0.16  0.01  0.00  0.83  0.00  0.00  0.00  0.00  0.00
  YS02001633YS02163601    1.00   0.00  0.01  0.00  0.99  0.00  0.00  0.00  0.15  0.00
  YS02001641YS02001644    1.00   0.00  0.01  0.00  0.99  0.00  0.00  0.00  0.00  0.00
  YS02001644YS02001647    1.00   0.00  0.18  0.00  0.82  0.00  0.00  0.00  0.00  0.00
  YS02001647YS02001649    1.00   0.00  0.18  0.00  0.49  0.33  0.00  0.00  0.57  0.00
  YS02001649YS02001757    1.00   0.00  0.00  0.00  0.64  0.36  0.00  0.00  0.51  0.00
  YS02001652YS02001649    1.00   0.00  0.00  0.00  0.96  0.04  0.00  0.00  0.77  0.00
  YS02001655YS02001652    1.00   0.00  0.00  0.00  0.15  0.02  0.00  0.83  0.07  0.00
  YS02001658YS02001655    1.00   0.00  0.14  0.00  0.62  0.24  0.00  0.00  0.74  0.00
  YS02001661YS02001658    1.00   0.14  0.00  0.00  0.46  0.40  0.00  0.00  0.73  0.00
  YS02001664YS02001661    1.00   0.13  0.00  0.00  0.76  0.11  0.00  0.00  0.86  0.00
  YS02001745YS02001748    1.00   0.00  0.00  0.00  0.05  0.01  0.00  0.94  0.04  0.00
  YS02001748YS02001751    1.00   0.00  0.00  0.00  0.78  0.22  0.00  0.00  0.79  0.00
  YS02001751YS02001754    1.00   0.00  0.00  0.00  0.11  0.01  0.00  0.89  0.02  0.00
  YS02001754YS02001757    1.00   0.00  0.00  0.00  1.00  0.00  0.00  0.00  0.88  0.00
  YS02001757CaochengTiaoxuchi    1.00   0.00  0.00  0.00  0.95  0.05  0.00  0.00  0.85  0.00
  YS02001759YS02001757    1.00   0.00  0.00  0.00  1.00  0.00  0.00  0.00  0.66  0.00
  YS02001762YS02001759    1.00   0.00  0.00  0.00  1.00  0.00  0.00  0.00  0.05  0.00
  YS02001765YS02001762    1.00   0.00  0.00  0.00  1.00  0.00  0.00  0.00  0.76  0.00
  YS02001767YS02001765    1.00   0.00  0.00  0.00  1.00  0.00  0.00  0.00  0.00  0.00
  YS02001770YS02001767    1.00   0.00  0.00  0.00  1.00  0.00  0.00  0.00  0.00  0.00
  YS02001774YS02001770    1.00   0.00  0.13  0.00  0.69  0.00  0.17  0.00  0.04  0.00
  YS02001779YS02001774    1.00   0.00  0.00  0.00  1.00  0.00  0.00  0.00  0.81  0.00
  YS02001783YS02001784    1.00   0.00  0.19  0.00  0.81  0.00  0.00  0.00  0.56  0.00
  YS02001784YS02001785    1.00   0.00  0.00  0.00  1.00  0.00  0.00  0.00  0.18  0.00
  YS02001786YS02001788    1.00   0.00  0.00  0.00  0.80  0.20  0.00  0.00  0.00  0.00
  YS02001788YS02001790    1.00   0.00  0.00  0.00  0.21  0.79  0.00  0.00  0.82  0.00
  YS02001790YS02001791    1.00   0.00  0.00  0.00  0.01  0.99  0.00  0.00  0.15  0.00
  YS02001791YS02001793    1.00   0.00  0.00  0.00  0.00  1.00  0.00  0.00  0.00  0.00
  YS02001793JiankangQianchi    1.00   0.00  0.00  0.00  0.97  0.03  0.00  0.00  1.00  0.00
  YS02001882YS02001884    1.00   0.16  0.01  0.00  0.83  0.00  0.00  0.00  0.00  0.00
  YS02001884YS02001887    1.00   0.06  0.05  0.00  0.89  0.00  0.00  0.00  0.00  0.00
  YS02001887YS02001890    1.00   0.00  0.00  0.00  0.97  0.00  0.03  0.00  0.00  0.00
  YS02001890YS02001895    1.00   0.00  0.17  0.00  0.83  0.00  0.00  0.00  0.00  0.00
  YS02001895YS02001898    1.00   0.17  0.00  0.00  0.81  0.00  0.02  0.00  0.00  0.00
  YS02001898YS02001901    1.00   0.17  0.00  0.00  0.82  0.00  0.00  0.00  0.01  0.00
  YS02001901YS02001904    1.00   0.17  0.00  0.00  0.83  0.00  0.00  0.00  0.00  0.00
  YS02001904YS02001907    1.00   0.00  0.17  0.00  0.83  0.00  0.00  0.00  0.00  0.00
  YS02001907YS02006553    1.00   0.00  0.02  0.00  0.98  0.00  0.00  0.00  0.00  0.00
  YS02001910YS02001907    1.00   0.00  0.00  0.00  0.97  0.00  0.00  0.03  0.12  0.00
  YS02001915YS02001910    1.00   0.00  0.00  0.00  0.96  0.04  0.00  0.00  0.17  0.00
  YS02001918YS02001915    1.00   0.00  0.00  0.00  0.98  0.02  0.00  0.00  0.77  0.00
  YS02001920YS02001918    1.00   0.00  0.00  0.00  1.00  0.00  0.00  0.00  0.01  0.00
  YS02001923YS02001920    1.00   0.00  0.00  0.00  1.00  0.00  0.00  0.00  0.94  0.00
  YS02001926YS02001923    1.00   0.00  0.07  0.00  0.05  0.00  0.88  0.00  0.00  0.00
  YS02001929YS02001926    1.00   0.00  0.13  0.00  0.87  0.00  0.00  0.00  0.83  0.00
  YS02006553YS02006556    1.00   0.01  0.00  0.00  0.99  0.00  0.00  0.00  0.03  0.00
  YS02006556YS02006558    1.00   0.00  0.00  0.00  1.00  0.00  0.00  0.00  0.00  0.00
  YS02006558YS02006561    1.00   0.19  0.00  0.00  0.04  0.77  0.00  0.00  0.19  0.00
  YS02006561YS02001783    1.00   0.19  0.00  0.00  0.07  0.74  0.00  0.00  0.70  0.00
  YS02163301YS02001633    1.00   0.00  0.16  0.00  0.84  0.00  0.00  0.00  0.00  0.00
  YS02163601YS02164001    1.00   0.00  0.08  0.00  0.92  0.00  0.00  0.00  0.00  0.00
  YS02164001YS02001641    1.00   0.01  0.07  0.00  0.92  0.00  0.00  0.00  0.06  0.00
  
  
  *************************
  Conduit Surcharge Summary
  *************************
  
  ----------------------------------------------------------------------------
                                                           Hours        Hours 
                         --------- Hours Full --------   Above Full   Capacity
  Conduit                Both Ends  Upstream  Dnstream   Normal Flow   Limited
  ----------------------------------------------------------------------------
  WS02003072WS02003073        0.01      0.01      0.01      0.57         0.01
  WS02004401WS02004402        0.01      0.01      0.01      0.01         0.01
  WS02004402WS02004403        0.01      0.01      0.01      0.01         0.01
  WS02004404WS02004405        0.01      0.01      0.01      2.18         0.01
  WS02004405WS02004406        0.01      0.01      0.01      0.50         0.01
  WS02006109WS02006110        0.54      0.54      0.95      0.56         0.01
  WS02006110WS02006113        0.01      0.01      0.95      0.01         0.01
  WS02006111WS02006112        0.01      0.01      1.26      0.01         0.01
  WS02006112WS02006115        0.01      0.01      0.51      0.01         0.01
  WS02006113WS02006111        0.01      0.01      0.01      0.01         0.01
  WS02006115WS02006116        0.01      0.01      0.01      0.01         0.01
  WS02006116WS02004401        0.01      0.01      0.01      0.01         0.01
  WS02006228WS02006109        0.92      0.96      0.92      1.66         0.92
  WS02006229WS02006228        0.92      0.93      0.92      1.25         0.92
  WS02006230WS02006229        1.05      1.19      1.05      2.51         1.05
  WS02006231WS02006230        0.54      0.54      0.56      2.15         0.01
  WS02006232WS02006231        0.55      0.55      0.96      0.57         0.01
  WS02006234WS02006232        0.92      0.92      0.96      0.57         0.57
  WS02006235WS02006234        0.62      0.62      0.93      2.04         0.01
  WS02006238WS02006235        0.93      0.94      0.96      0.01         0.01
  WS02006239WS02006238        0.94      0.95      0.94      1.09         0.87
  WS02006240WS02006239        0.92      0.93      0.93      1.09         0.84
  WS02006242WS02006240        0.92      0.92      0.99      1.27         0.01
  WS02006243WS02006242        0.92      0.92      0.96      0.01         0.01
  WS02006245WS02006243        0.91      0.91      0.91      0.58         0.43
  WS02006247WS02006245        0.91      0.91      0.91      1.98         0.91
  WS02006248WS02006247        0.90      0.90      0.91      0.01         0.01
  WS02006249WS02006248        0.90      0.90      0.90      1.93         0.01
  WS02006251WS02006249        0.90      0.90      0.90      1.18         0.89
  WS02006252WS02006251        1.21      1.21      1.27      1.22         0.01
  WS02006256WS02006235        2.07      2.09      6.35      0.89         0.01
  YS02001580YS02001583        0.44      0.44      0.48      0.01         0.01
  YS02001583YS02001586        0.45      0.45      0.56      0.01         0.01
  YS02001586YS02001590        0.56      0.56      0.62      0.01         0.01
  YS02001590YS02001593        0.63      0.63      0.64      0.66         0.01
  YS02001593YS02001596        0.63      0.63      0.73      0.01         0.01
  YS02001596YS02001600        0.77      0.77      0.87      0.01         0.01
  YS02001600YS02001601        0.93      0.93      1.23      0.01         0.01
  YS02001601YS02001602        1.12      1.12      1.27      0.89         0.01
  YS02001602YS02001605        1.06      1.06      1.12      2.11         0.01
  YS02001605YS02001607        1.01      1.06      1.01      1.19         1.01
  YS02001607YS02001610        0.58      0.58      0.60      0.01         0.01
  YS02001610YS02001613        0.57      0.57      0.60      0.01         0.01
  YS02001613YS02001616        0.53      0.53      0.57      0.01         0.01
  YS02001616YS02001619        0.52      0.52      0.53      0.01         0.01
  YS02001619YS02001622        0.52      0.52      0.52      0.66         0.51
  YS02001622YS02001625        0.52      0.52      0.68      0.01         0.01
  YS02001625YS02001629        0.47      0.47      0.68      0.01         0.01
  YS02001629YS02163301        0.67      0.67      0.67      0.27         0.26
  YS02001633YS02163601        0.69      0.69      0.72      0.40         0.39
  YS02001641YS02001644        0.57      0.61      0.57      1.31         0.57
  YS02001644YS02001647        0.37      0.37      0.57      0.05         0.01
  YS02001647YS02001649        0.37      0.37      0.45      0.01         0.01
  YS02001649YS02001757        0.44      0.45      0.48      0.36         0.28
  YS02001652YS02001649        0.32      0.32      0.45      0.01         0.01
  YS02001655YS02001652        0.19      0.19      0.30      0.01         0.01
  YS02001658YS02001655        0.07      0.07      0.19      0.01         0.01
  YS02001661YS02001658        0.01      0.01      0.07      0.01         0.01
  YS02001664YS02001661        0.01      0.01      0.01      0.01         0.01
  YS02001745YS02001748        0.01      0.01      0.01      0.01         0.01
  YS02001748YS02001751        0.03      0.03      0.11      0.01         0.01
  YS02001751YS02001754        0.11      0.11      0.20      0.01         0.01
  YS02001754YS02001757        0.23      0.23      0.48      0.01         0.01
  YS02001757CaochengTiaoxuchi        0.38      0.48      0.94      0.32         0.18
  YS02001759YS02001757        0.39      0.39      0.48      0.01         0.01
  YS02001762YS02001759        0.37      0.37      0.39      0.01         0.02
  YS02001765YS02001762        0.33      0.33      0.37      0.01         0.01
  YS02001767YS02001765        0.31      0.31      0.33      0.01         0.03
  YS02001770YS02001767        0.31      0.32      0.31      0.43         0.26
  YS02001774YS02001770        0.30      0.30      0.36      0.01         0.01
  YS02001779YS02001774        0.22      0.22      0.36      0.01         0.01
  YS02001783YS02001784        0.40      0.42      0.40      0.56         0.40
  YS02001784YS02001785        0.30      0.40      0.30      0.77         0.30
  YS02001786YS02001788        0.01      0.30      0.01      0.66         0.01
  YS02001790YS02001791        0.01      0.01      0.01      0.39         0.01
  YS02001793JiankangQianchi        0.01      0.01      7.13      0.01         0.01
  YS02001882YS02001884        0.37      0.37      0.38      0.01         0.01
  YS02001884YS02001887        0.40      0.40      0.41      0.01         0.01
  YS02001887YS02001890        0.42      0.42      0.43      0.03         0.01
  YS02001890YS02001895        0.36      0.36      0.45      0.01         0.01
  YS02001895YS02001898        0.35      0.35      0.36      0.01         0.01
  YS02001898YS02001901        0.36      0.36      0.40      0.01         0.01
  YS02001901YS02001904        0.39      0.39      0.40      0.01         0.01
  YS02001904YS02001907        0.39      0.39      0.64      0.01         0.01
  YS02001907YS02006553        0.78      0.78      0.84      0.01         0.01
  YS02001910YS02001907        0.45      0.45      0.63      0.01         0.01
  YS02001915YS02001910        0.37      0.37      0.45      0.01         0.01
  YS02001918YS02001915        0.29      0.29      0.37      0.01         0.01
  YS02001920YS02001918        0.29      0.29      0.30      0.01         0.01
  YS02001923YS02001920        0.25      0.25      0.30      0.01         0.01
  YS02001926YS02001923        0.01      0.01      0.02      0.01         0.01
  YS02001929YS02001926        0.01      0.01      0.02      0.01         0.01
  YS02006553YS02006556        0.54      0.54      0.64      0.01         0.01
  YS02006556YS02006558        0.59      0.59      0.65      0.01         0.01
  YS02006558YS02006561        0.32      0.53      0.32      0.72         0.32
  YS02006561YS02001783        0.26      0.26      0.42      0.01         0.01
  YS02163301YS02001633        0.67      0.67      0.71      0.01         0.01
  YS02163601YS02164001        0.62      0.62      0.72      0.14         0.01
  YS02164001YS02001641        0.61      0.62      0.61      0.67         0.52
  
  
  ***************
  Pumping Summary
  ***************
  
  ---------------------------------------------------------------------------------------------------------
                                                  Min       Avg       Max     Total     Power    % Time Off
                        Percent   Number of      Flow      Flow      Flow    Volume     Usage    Pump Curve
  Pump                 Utilized   Start-Ups       LPS       LPS       LPS  10^6 ltr     Kw-hr    Low   High
  ---------------------------------------------------------------------------------------------------------
  CC-R1                   13.39           8      0.00    683.00    683.00     2.634     47.04    0.0   33.1
  CC-R2                   25.39          43      0.00    683.00    683.00     4.995     87.28    0.0   56.9
  CC-S1                   24.35          40      0.00    200.00    200.00     1.403      8.81    0.0    0.0
  CC-S2                   17.25           4      0.00    200.00    200.00     0.994      6.15    0.0    0.0
  JK-R1                    5.62          21      0.00   1000.00   1000.00     1.620     13.24    0.0    0.0
  JK-R2                    3.77          19      0.00   1000.00   1000.00     1.085      8.41    0.0    0.0
  JK-S                    10.30          40      0.00    300.00    300.00     0.890     15.98    0.0    0.0
  

  Analysis begun on:  Fri Aug  4 11:25:48 2023
  Analysis ended on:  Fri Aug  4 11:25:56 2023
  Total elapsed time: 00:00:08