
  OWA STORM WATER MANAGEMENT MODEL - VERSION v5.2.3 (OWA 2023-06-06)
  ------------------------------------------------------------

  WARNING 04: minimum elevation drop used for Conduit WS02004404WS02004405
  WARNING 03: negative offset ignored for Link YS02001904YS02001907
  
  ****************
  Analysis Options
  ****************
  Flow Units ............... LPS
  Process Models:
    Rainfall/Runoff ........ YES
    RDII ................... NO
    Snowmelt ............... NO
    Groundwater ............ NO
    Flow Routing ........... YES
    Ponding Allowed ........ NO
    Water Quality .......... NO
  Infiltration Method ...... HORTON
  Flow Routing Method ...... DYNWAVE
  Surcharge Method ......... EXTRAN
  Starting Date ............ 08/28/2015 08:00:00
  Ending Date .............. 08/28/2015 16:00:00
  Antecedent Dry Days ...... 8.0
  Report Time Step ......... 00:01:00
  Wet Time Step ............ 00:01:00
  Dry Time Step ............ 00:01:00
  Routing Time Step ........ 30.00 sec
  Variable Time Step ....... YES
  Maximum Trials ........... 8
  Number of Threads ........ 2
  Head Tolerance ........... 0.001500 m
  
  
  **************************        Volume         Depth
  Runoff Quantity Continuity     hectare-m            mm
  **************************     ---------       -------
  Total Precipitation ......         1.683        50.739
  Evaporation Loss .........         0.000         0.000
  Infiltration Loss ........         0.097         2.911
  Surface Runoff ...........         1.554        46.844
  Final Storage ............         0.033         0.994
  Continuity Error (%) .....        -0.019
  
  
  **************************        Volume        Volume
  Flow Routing Continuity        hectare-m      10^6 ltr
  **************************     ---------     ---------
  Dry Weather Inflow .......         0.025         0.251
  Wet Weather Inflow .......         1.554        15.536
  Groundwater Inflow .......         0.000         0.000
  RDII Inflow ..............         0.000         0.000
  External Inflow ..........         0.083         0.834
  External Outflow .........         1.453        14.527
  Flooding Loss ............         0.303         3.032
  Evaporation Loss .........         0.000         0.000
  Exfiltration Loss ........         0.000         0.000
  Initial Stored Volume ....         0.243         2.431
  Final Stored Volume ......         0.181         1.813
  Continuity Error (%) .....        -1.686
  
  
  *************************
  Highest Continuity Errors
  *************************
  Node YS02001583 (-7.43%)
  Node YS02001884 (5.11%)
  Node WS02006256 (-3.76%)
  Node YS02001774 (1.86%)
  Node WS02006111 (-1.15%)
  
  
  ***************************
  Time-Step Critical Elements
  ***************************
  Link WS02006252WS02006251 (36.30%)
  Link WS02006238WS02006235 (19.97%)
  Link WS02004404WS02004405 (14.87%)
  Link WS02003066WSF200 (6.96%)
  Link YS02001791YS02001793 (5.69%)
  
  
  ********************************
  Highest Flow Instability Indexes
  ********************************
  Link WS02006113WS02006111 (29)
  Link WS02006256WS02006235 (19)
  Link WS02006111WS02006112 (14)
  Link WS02006238WS02006235 (14)
  Link WS02006229WS02006228 (13)
  
  
  *********************************
  Most Frequent Nonconverging Nodes
  *********************************
  Node CC-1 (9.15%)
  Node CC-2 (9.15%)
  Node JK-1 (9.15%)
  Node JK-2 (9.15%)
  Node WSC (9.15%)
  
  
  *************************
  Routing Time Step Summary
  *************************
  Minimum Time Step           :     0.01 sec
  Average Time Step           :     2.57 sec
  Maximum Time Step           :    30.00 sec
  % of Time in Steady State   :     0.00
  Average Iterations per Step :     3.01
  % of Steps Not Converging   :     9.15
  Time Step Frequencies       :
     30.000 - 13.228 sec      :     0.01 %
     13.228 -  5.833 sec      :    11.78 %
      5.833 -  2.572 sec      :    29.14 %
      2.572 -  1.134 sec      :    19.04 %
      1.134 -  0.500 sec      :    40.03 %
  
  
  ***************************
  Subcatchment Runoff Summary
  ***************************
  
  ------------------------------------------------------------------------------------------------------------------------------
                            Total      Total      Total      Total     Imperv       Perv      Total       Total     Peak  Runoff
                           Precip      Runon       Evap      Infil     Runoff     Runoff     Runoff      Runoff   Runoff   Coeff
  Subcatchment                 mm         mm         mm         mm         mm         mm         mm    10^6 ltr      LPS
  ------------------------------------------------------------------------------------------------------------------------------
  sub60                     50.74       0.00       0.00       1.76      43.44       4.33      47.77        0.63   401.98   0.941
  sub61                     50.74       0.00       0.00       2.55      40.98       6.07      47.05        0.86   555.89   0.927
  sub62                     50.74       0.00       0.00       1.17      45.39       2.89      48.28        1.32   779.80   0.951
  sub63                     50.74       0.00       0.00       4.70      35.05      10.01      45.06        1.02   614.10   0.888
  sub64                     50.74       0.00       0.00       2.38      41.92       5.23      47.15        1.13   631.10   0.929
  sub65                     50.74       0.00       0.00       2.06      42.89       4.54      47.43        1.31   705.07   0.935
  sub66                     50.74       0.00       0.00       5.79      34.95       8.93      43.88        2.05   904.64   0.865
  sub67                     50.74       0.00       0.00       1.13      45.43       2.93      48.36        0.90   603.78   0.953
  sub68                     50.74       0.00       0.00       2.12      42.45       4.99      47.44        1.31   799.94   0.935
  sub69                     50.74       0.00       0.00       1.87      43.01       5.75      48.76        1.81   941.46   0.961
  sub70                     50.74       0.00       0.00       6.18      33.32      11.08      44.40        1.28   509.98   0.875
  sub71                     50.74       0.00       0.00       1.20      45.35       2.86      48.21        1.26   685.84   0.950
  sub72                     50.74       0.00       0.00       1.07      45.78       2.48      48.27        0.66   329.56   0.951
  
  
  ******************
  Node Depth Summary
  ******************
  
  ---------------------------------------------------------------------------------
                                 Average  Maximum  Maximum  Time of Max    Reported
                                   Depth    Depth      HGL   Occurrence   Max Depth
  Node                 Type       Meters   Meters   Meters  days hr:min      Meters
  ---------------------------------------------------------------------------------
  WS02003060           JUNCTION     0.19     0.38     5.32     0  02:35        0.38
  WS02003066           JUNCTION     0.17     0.30     5.85     0  02:34        0.30
  WS02003067           JUNCTION     0.46     0.70     6.02     0  02:34        0.70
  WS02003069           JUNCTION     0.21     0.43     5.01     0  02:36        0.43
  WS02003072           JUNCTION     0.27     0.50     4.87     0  02:36        0.50
  WS02003073           JUNCTION     0.15     0.30     4.36     0  02:37        0.30
  WS02004401           JUNCTION     0.54     0.85     6.85     0  02:31        0.85
  WS02004402           JUNCTION     0.58     0.88     6.84     0  02:32        0.88
  WS02004403           JUNCTION     0.61     0.89     6.82     0  02:32        0.89
  WS02004404           JUNCTION     0.68     0.96     6.81     0  02:32        0.96
  WS02004405           JUNCTION     0.68     0.96     6.81     0  02:32        0.96
  WS02004406           JUNCTION     0.69     0.96     6.79     0  02:32        0.96
  WS02004407           JUNCTION     0.15     0.30     6.61     0  02:32        0.30
  WS02004409           JUNCTION     0.33     0.67     6.44     0  02:33        0.67
  WS02004410           JUNCTION     0.36     0.68     6.40     0  02:33        0.68
  WS02004411           JUNCTION     0.38     0.69     6.37     0  02:33        0.69
  WS02004412           JUNCTION     0.41     0.70     6.34     0  02:34        0.70
  WS02004413           JUNCTION     0.57     0.86     6.33     0  02:34        0.86
  WS02006109           JUNCTION     0.59     1.03     7.65     0  02:02        0.97
  WS02006110           JUNCTION     0.60     0.98     7.57     0  02:02        0.92
  WS02006111           JUNCTION     0.15     0.90     7.60     0  00:00        0.40
  WS02006112           JUNCTION     0.69     2.68     8.56     0  00:00        1.14
  WS02006113           JUNCTION     0.23     1.40     8.29     0  00:00        0.46
  WS02006115           JUNCTION     0.42     1.65     7.79     0  00:00        0.86
  WS02006116           JUNCTION     0.51     1.06     7.10     0  00:00        0.83
  WS02006228           JUNCTION     0.58     1.06     7.71     0  02:02        1.02
  WS02006229           JUNCTION     0.54     1.07     7.76     0  02:01        1.03
  WS02006230           JUNCTION     0.53     1.19     7.94     0  02:01        1.16
  WS02006231           JUNCTION     0.35     0.93     8.05     0  02:01        0.90
  WS02006232           JUNCTION     0.48     1.62     8.66     0  00:15        1.11
  WS02006234           JUNCTION     0.39     1.63     8.79     0  00:15        1.22
  WS02006235           JUNCTION     0.43     1.31     8.48     0  02:00        1.31
  WS02006238           JUNCTION     0.46     1.31     8.46     0  02:00        1.31
  WS02006239           JUNCTION     0.42     1.34     8.55     0  00:15        1.28
  WS02006240           JUNCTION     0.39     1.82     9.11     0  00:15        1.24
  WS02006242           JUNCTION     0.45     1.38     8.64     0  00:15        1.30
  WS02006243           JUNCTION     0.37     1.37     8.79     0  00:15        1.19
  WS02006245           JUNCTION     0.37     1.16     8.64     0  02:02        1.16
  WS02006247           JUNCTION     0.39     1.16     8.66     0  02:02        1.16
  WS02006248           JUNCTION     0.35     1.10     8.68     0  02:02        1.10
  WS02006249           JUNCTION     0.38     1.09     8.69     0  02:01        1.09
  WS02006251           JUNCTION     0.37     1.39     9.06     0  02:01        1.13
  WS02006252           JUNCTION     0.28     1.50     9.74     0  01:55        0.69
  WS02006256           JUNCTION     0.85     2.35     9.28     0  00:09        2.35
  WSF200               JUNCTION     0.14     0.29     5.52     0  02:35        0.29
  YS02001580           JUNCTION     0.10     1.05     9.59     0  01:57        0.77
  YS02001583           JUNCTION     0.13     1.07     9.56     0  01:56        0.85
  YS02001586           JUNCTION     0.21     1.13     9.30     0  01:56        1.13
  YS02001590           JUNCTION     0.31     1.40     9.26     0  01:54        1.40
  YS02001593           JUNCTION     0.25     1.46     9.32     0  01:57        1.46
  YS02001596           JUNCTION     0.34     1.78     9.20     0  01:57        1.78
  YS02001600           JUNCTION     0.42     1.87     9.00     0  01:55        1.87
  YS02001601           JUNCTION     0.61     2.06     8.90     0  01:55        2.06
  YS02001602           JUNCTION     0.52     1.87     8.77     0  01:56        1.87
  YS02001605           JUNCTION     0.48     1.78     8.68     0  02:13        1.78
  YS02001607           JUNCTION     0.46     1.65     8.50     0  02:06        1.65
  YS02001610           JUNCTION     0.50     1.68     8.48     0  01:56        1.68
  YS02001613           JUNCTION     0.46     1.67     8.51     0  01:56        1.66
  YS02001616           JUNCTION     0.39     1.61     8.52     0  01:56        1.59
  YS02001619           JUNCTION     0.37     1.60     8.53     0  02:00        1.59
  YS02001622           JUNCTION     0.36     1.57     8.47     0  02:00        1.57
  YS02001625           JUNCTION     0.60     1.78     8.38     0  01:56        1.78
  YS02001629           JUNCTION     0.49     1.85     8.40     0  01:56        1.85
  YS02001633           JUNCTION     0.56     2.01     8.47     0  02:01        2.01
  YS02001641           JUNCTION     0.53     1.94     8.38     0  02:01        1.94
  YS02001644           JUNCTION     0.52     1.92     8.35     0  02:01        1.92
  YS02001647           JUNCTION     0.30     1.79     8.40     0  02:01        1.68
  YS02001649           JUNCTION     0.34     1.98     8.37     0  02:01        1.86
  YS02001652           JUNCTION     0.23     1.89     8.49     0  02:01        1.67
  YS02001655           JUNCTION     0.17     1.91     8.76     0  02:01        1.46
  YS02001658           JUNCTION     0.12     1.91     9.05     0  02:01        1.21
  YS02001661           JUNCTION     0.14     1.06     8.46     0  02:02        1.00
  YS02001664           JUNCTION     0.06     0.51     8.43     0  02:02        0.41
  YS02001745           JUNCTION     0.06     0.72     8.24     0  02:01        0.68
  YS02001748           JUNCTION     0.11     1.74     8.81     0  02:01        1.06
  YS02001751           JUNCTION     0.13     1.94     8.82     0  02:01        1.25
  YS02001754           JUNCTION     0.18     1.96     8.57     0  02:01        1.51
  YS02001757           JUNCTION     0.34     1.97     8.23     0  02:01        1.86
  YS02001759           JUNCTION     0.29     1.96     8.32     0  02:01        1.88
  YS02001762           JUNCTION     0.28     1.91     8.31     0  02:01        1.89
  YS02001765           JUNCTION     0.26     1.89     8.34     0  02:01        1.87
  YS02001767           JUNCTION     0.26     1.87     8.36     0  02:02        1.87
  YS02001770           JUNCTION     0.27     1.95     8.45     0  02:00        1.92
  YS02001774           JUNCTION     0.33     2.03     8.45     0  02:00        1.98
  YS02001779           JUNCTION     0.17     1.68     8.37     0  02:00        1.68
  YS02001783           JUNCTION     0.27     1.42     7.56     0  01:59        1.22
  YS02001784           JUNCTION     0.29     1.25     7.32     0  01:59        1.11
  YS02001786           JUNCTION     0.24     0.99     7.02     0  01:59        0.87
  YS02001788           JUNCTION     0.17     0.62     6.60     0  01:59        0.62
  YS02001790           JUNCTION     0.21     0.73     6.37     0  02:02        0.72
  YS02001791           JUNCTION     0.13     0.44     5.91     0  02:00        0.42
  YS02001793           JUNCTION     0.07     0.28     5.11     0  02:00        0.28
  YS02001882           JUNCTION     0.34     1.74     8.45     0  01:59        1.63
  YS02001884           JUNCTION     0.42     1.81     8.43     0  01:59        1.72
  YS02001887           JUNCTION     0.49     1.85     8.39     0  01:59        1.81
  YS02001890           JUNCTION     0.52     1.81     8.32     0  01:59        1.81
  YS02001895           JUNCTION     0.31     1.58     8.33     0  01:59        1.56
  YS02001898           JUNCTION     0.32     1.59     8.32     0  01:59        1.56
  YS02001901           JUNCTION     0.42     1.69     8.30     0  01:59        1.67
  YS02001904           JUNCTION     0.40     1.65     8.28     0  01:59        1.64
  YS02001907           JUNCTION     0.70     1.96     8.25     0  01:59        1.96
  YS02001910           JUNCTION     0.51     2.03     8.54     0  02:00        2.03
  YS02001915           JUNCTION     0.34     2.00     8.72     0  02:00        2.00
  YS02001918           JUNCTION     0.19     1.81     8.88     0  02:00        1.81
  YS02001920           JUNCTION     0.27     2.14     9.15     0  02:00        2.14
  YS02001923           JUNCTION     0.14     2.03     9.29     0  02:00        2.03
  YS02001926           JUNCTION     0.18     1.90     9.35     0  02:00        1.90
  YS02001929           JUNCTION     0.10     1.78     9.47     0  02:00        1.78
  YS02006553           JUNCTION     0.70     2.03     8.32     0  01:59        1.97
  YS02006556           JUNCTION     0.67     2.09     8.41     0  01:59        1.94
  YS02006558           JUNCTION     0.72     2.15     8.42     0  01:59        1.99
  YS02006561           JUNCTION     0.17     1.08     7.74     0  01:59        0.89
  YS02163301           JUNCTION     0.51     1.91     8.43     0  02:01        1.91
  YS02163601           JUNCTION     0.59     2.03     8.43     0  02:01        2.03
  YS02164001           JUNCTION     0.52     1.94     8.40     0  02:01        1.94
  CC-1                 OUTFALL      0.00     0.00     0.00     0  00:00        0.00
  CC-2                 OUTFALL      0.00     0.00     0.00     0  00:00        0.00
  JK-1                 OUTFALL      0.00     0.00     0.00     0  00:00        0.00
  JK-2                 OUTFALL      0.00     0.00     0.00     0  00:00        0.00
  WSC                  OUTFALL      0.15     0.30     0.97     0  02:38        0.30
  CC-storage           STORAGE      0.72     1.32     6.82     0  02:31        1.32
  JK-storage           STORAGE      1.47     4.23     5.03     0  01:59        4.19
  
  
  *******************
  Node Inflow Summary
  *******************
  
  -------------------------------------------------------------------------------------------------
                                  Maximum  Maximum                  Lateral       Total        Flow
                                  Lateral    Total  Time of Max      Inflow      Inflow     Balance
                                   Inflow   Inflow   Occurrence      Volume      Volume       Error
  Node                 Type           LPS      LPS  days hr:min    10^6 ltr    10^6 ltr     Percent
  -------------------------------------------------------------------------------------------------
  WS02003060           JUNCTION     16.53   553.66     0  02:35       0.476         3.8       0.063
  WS02003066           JUNCTION      0.00   536.85     0  02:34           0        3.32       0.042
  WS02003067           JUNCTION      0.00   536.80     0  02:34           0        3.33       0.126
  WS02003069           JUNCTION      0.32   553.69     0  02:35     0.00922        3.81       0.104
  WS02003072           JUNCTION      0.00   553.43     0  02:36           0         3.8       0.184
  WS02003073           JUNCTION      1.82   555.17     0  02:37      0.0524        3.85       0.148
  WS02004401           JUNCTION      0.00  1677.78     0  00:00           0        3.44       0.336
  WS02004402           JUNCTION      0.00  1171.33     0  00:01           0        3.43       0.329
  WS02004403           JUNCTION      0.00   884.75     0  00:01           0        3.41       0.321
  WS02004404           JUNCTION      0.16   832.59     0  00:01     0.00467        3.41       0.274
  WS02004405           JUNCTION      0.04   776.49     0  00:01      0.0011         3.4       0.363
  WS02004406           JUNCTION      0.00   711.76     0  00:02           0        3.39       0.648
  WS02004407           JUNCTION      0.00   538.06     0  02:32           0        3.36       0.034
  WS02004409           JUNCTION      0.00   537.60     0  02:32           0        3.36       0.082
  WS02004410           JUNCTION      0.00   537.39     0  02:33           0        3.36       0.135
  WS02004411           JUNCTION      0.00   537.25     0  02:33           0        3.36       0.174
  WS02004412           JUNCTION      0.00   537.03     0  02:33           0        3.35       0.225
  WS02004413           JUNCTION      0.00   537.17     0  02:34           0        3.34       0.412
  WS02006109           JUNCTION      1.23  1308.01     0  00:00      0.0354        3.37       0.258
  WS02006110           JUNCTION      0.00   547.41     0  02:02           0        3.34      -1.075
  WS02006111           JUNCTION      0.00  1176.04     0  00:00           0        3.37      -1.135
  WS02006112           JUNCTION      0.00  2307.30     0  00:00           0        3.41      -0.017
  WS02006113           JUNCTION      0.00   559.60     0  02:02           0        3.33      -1.477
  WS02006115           JUNCTION      0.00   899.27     0  00:00           0        3.38      -0.945
  WS02006116           JUNCTION      0.00  1098.16     0  00:01           0        3.42      -0.675
  WS02006228           JUNCTION      0.00   548.03     0  02:02           0        3.31       0.120
  WS02006229           JUNCTION      0.00   548.58     0  02:02           0         3.3       0.274
  WS02006230           JUNCTION     10.28   550.21     0  02:01       0.296        3.29       0.060
  WS02006231           JUNCTION      0.00   541.98     0  02:01           0        2.98       0.015
  WS02006232           JUNCTION      0.00   542.40     0  02:01           0        2.99       0.243
  WS02006234           JUNCTION      0.00   543.30     0  02:01           0        2.97      -0.529
  WS02006235           JUNCTION      0.00   542.16     0  02:01           0        3.09       0.452
  WS02006238           JUNCTION      0.00   417.17     0  02:45           0        2.48      -0.288
  WS02006239           JUNCTION      0.00   417.14     0  02:45           0        2.39      -0.114
  WS02006240           JUNCTION      0.00   415.57     0  02:45           0        2.36      -0.038
  WS02006242           JUNCTION      0.00   415.91     0  02:45           0        2.36       0.087
  WS02006243           JUNCTION      0.00   415.23     0  02:45           0        2.35      -0.278
  WS02006245           JUNCTION      0.00   414.78     0  02:45           0        2.36       0.486
  WS02006247           JUNCTION      0.00   413.80     0  02:45           0        2.36      -0.030
  WS02006248           JUNCTION      0.00   417.63     0  00:05           0        2.36      -0.026
  WS02006249           JUNCTION      0.00   824.67     0  00:05           0        2.53       0.634
  WS02006251           JUNCTION      0.08   460.09     0  00:05     0.00222        2.51      -0.697
  WS02006252           JUNCTION      0.00   400.00     0  00:05           0         2.5      -0.519
  WS02006256           JUNCTION      0.00   300.00     0  00:15           0        0.89      -3.626
  WSF200               JUNCTION      0.00   536.91     0  02:34           0        3.32       0.014
  YS02001580           JUNCTION      0.00   121.57     0  01:57           0     0.00426      -1.881
  YS02001583           JUNCTION      0.00   187.83     0  01:56           0      0.0148      -6.916
  YS02001586           JUNCTION    509.98   510.00     0  02:04        1.28        1.29       0.101
  YS02001590           JUNCTION      0.00   317.95     0  02:03           0        1.14      -0.045
  YS02001593           JUNCTION      0.00   318.06     0  02:04           0        1.15       0.004
  YS02001596           JUNCTION      0.00   318.01     0  02:04           0        1.15      -0.008
  YS02001600           JUNCTION      0.00   318.00     0  02:12           0        1.15       0.005
  YS02001601           JUNCTION    941.46  1258.89     0  02:03         1.8        2.95       0.025
  YS02001602           JUNCTION      0.00   527.17     0  01:56           0        2.06       0.016
  YS02001605           JUNCTION      0.00   527.46     0  01:56           0        1.99       0.023
  YS02001607           JUNCTION      0.00   528.05     0  01:56           0        1.99       0.097
  YS02001610           JUNCTION      0.00   532.19     0  01:56           0           2       0.117
  YS02001613           JUNCTION      0.00   534.75     0  01:56           0        1.71       0.090
  YS02001616           JUNCTION      0.00   539.69     0  01:56           0        1.71       0.031
  YS02001619           JUNCTION    904.64   935.22     0  01:58        2.05        3.74       0.006
  YS02001622           JUNCTION      0.00   933.11     0  01:58           0        3.72      -0.005
  YS02001625           JUNCTION      0.00   999.37     0  02:04           0        3.74       0.242
  YS02001629           JUNCTION      0.00   935.16     0  01:56           0        3.28       0.022
  YS02001633           JUNCTION    705.27  1400.19     0  01:58        1.31        4.56       0.076
  YS02001641           JUNCTION      0.00  1394.49     0  01:58           0        4.54       0.062
  YS02001644           JUNCTION    631.14  1843.48     0  01:59        1.13        5.67       0.059
  YS02001647           JUNCTION      0.00  1842.85     0  01:59           0        5.63       0.006
  YS02001649           JUNCTION      0.00  2151.22     0  01:59           0        6.65      -0.001
  YS02001652           JUNCTION      0.00   727.86     0  02:02           0        1.03      -0.105
  YS02001655           JUNCTION      0.15   726.51     0  02:02     0.00443        1.03      -0.000
  YS02001658           JUNCTION      0.00   794.43     0  02:01           0        1.02      -0.007
  YS02001661           JUNCTION      0.00   815.00     0  02:02           0        1.02       0.016
  YS02001664           JUNCTION    614.10   614.10     0  02:02        1.02        1.02      -0.006
  YS02001745           JUNCTION    401.98   428.81     0  02:01       0.628       0.628       0.241
  YS02001748           JUNCTION      0.04   668.43     0  02:01      0.0013       0.629      -0.315
  YS02001751           JUNCTION      0.01   480.88     0  02:01    0.000317       0.635       0.063
  YS02001754           JUNCTION      0.26   447.19     0  02:02     0.00749       0.646      -0.225
  YS02001757           JUNCTION      0.00  3484.00     0  02:02           0         9.5       0.066
  YS02001759           JUNCTION    555.93  1332.59     0  02:02       0.864         2.2      -0.010
  YS02001762           JUNCTION      0.00   783.96     0  02:02           0        1.34       0.012
  YS02001765           JUNCTION      0.00   782.98     0  02:02           0        1.34       0.013
  YS02001767           JUNCTION      0.54   782.62     0  02:02      0.0154        1.34       0.001
  YS02001770           JUNCTION    779.95   779.98     0  02:02        1.33        1.37       0.011
  YS02001774           JUNCTION      0.00   309.78     0  02:00           0       0.061       1.890
  YS02001779           JUNCTION      0.01   296.95     0  02:00    0.000144      0.0193      -3.984
  YS02001783           JUNCTION      0.00  1156.92     0  02:01           0        3.54       0.006
  YS02001784           JUNCTION      1.06  1158.04     0  02:01      0.0305        3.57       0.013
  YS02001786           JUNCTION      0.06  1158.08     0  02:01     0.00162        3.57       0.018
  YS02001788           JUNCTION      0.07  1158.82     0  02:01     0.00204        3.58       0.009
  YS02001790           JUNCTION      0.15  1172.78     0  02:01     0.00446        3.58       0.026
  YS02001791           JUNCTION      0.00  1288.31     0  02:00           0        3.58      -0.020
  YS02001793           JUNCTION      0.00  1244.86     0  02:00           0        3.58       0.008
  YS02001882           JUNCTION      0.00    51.95     0  01:57           0      0.0123       5.237
  YS02001884           JUNCTION      0.00    71.24     0  01:56           0       0.048       5.384
  YS02001887           JUNCTION    604.23   604.25     0  02:02       0.912       0.945       0.472
  YS02001890           JUNCTION      0.00   605.27     0  02:02           0       0.905       0.559
  YS02001895           JUNCTION      0.00   515.51     0  02:04           0       0.878       0.174
  YS02001898           JUNCTION      0.00   515.24     0  02:04           0       0.877       0.022
  YS02001901           JUNCTION      0.00   515.40     0  02:04           0       0.879       0.369
  YS02001904           JUNCTION      0.00   515.16     0  02:04           0       0.883       0.311
  YS02001907           JUNCTION      0.00  1569.73     0  02:00           0        2.88       0.622
  YS02001910           JUNCTION      0.00  1074.05     0  02:00           0           2       0.349
  YS02001915           JUNCTION    685.86  1073.94     0  02:01        1.26        2.05       0.072
  YS02001918           JUNCTION      0.00   458.65     0  01:59           0        0.82       0.017
  YS02001920           JUNCTION      2.87   455.92     0  01:59      0.0827       0.801       0.094
  YS02001923           JUNCTION      0.04   454.72     0  01:59     0.00109       0.702      -0.166
  YS02001926           JUNCTION      0.05   666.41     0  01:59      0.0015       0.681      -0.076
  YS02001929           JUNCTION    329.56   534.19     0  01:59       0.664       0.667      -0.010
  YS02006553           JUNCTION      0.00   795.67     0  02:16           0        2.26       0.520
  YS02006556           JUNCTION      0.00   796.08     0  02:16           0        2.27       0.341
  YS02006558           JUNCTION    800.82  1166.47     0  01:59        1.33        3.57       0.099
  YS02006561           JUNCTION      0.00  1165.04     0  01:59           0        3.54      -0.003
  YS02163301           JUNCTION      0.00   932.56     0  01:58           0        3.27       0.047
  YS02163601           JUNCTION      0.11  1399.26     0  01:58     0.00317        4.54       0.110
  YS02164001           JUNCTION      0.00  1397.98     0  01:58           0        4.53       0.053
  CC-1                 OUTFALL       0.00   683.00     0  01:40           0        2.73       0.000
  CC-2                 OUTFALL       0.00   683.00     0  00:15           0        5.13       0.000
  JK-1                 OUTFALL       0.00  1000.00     0  00:05           0        1.46       0.000
  JK-2                 OUTFALL       0.00  1000.00     0  00:05           0        1.37       0.000
  WSC                  OUTFALL       0.00   555.12     0  02:38           0        3.84       0.000
  CC-storage           STORAGE       0.00  3484.56     0  02:02           0        11.7      -0.258
  JK-storage           STORAGE       0.00  1311.94     0  02:00           0        3.73      -0.448
  
  
  **********************
  Node Surcharge Summary
  **********************
  
  Surcharging occurs when water rises above the top of the highest conduit.
  ---------------------------------------------------------------------
                                               Max. Height   Min. Depth
                                   Hours       Above Crown    Below Rim
  Node                 Type      Surcharged         Meters       Meters
  ---------------------------------------------------------------------
  WS02006109           JUNCTION        1.08          0.212        1.608
  WS02006110           JUNCTION        0.58          0.075        1.775
  WS02006111           JUNCTION        0.01          0.087        1.783
  WS02006112           JUNCTION        0.52          1.680        0.000
  WS02006113           JUNCTION        0.01          0.600        1.330
  WS02006115           JUNCTION        0.01          0.642        1.608
  WS02006116           JUNCTION        0.01          0.000        2.290
  WS02006228           JUNCTION        1.08          0.228        1.972
  WS02006229           JUNCTION        1.09          0.268        2.182
  WS02006230           JUNCTION        0.57          0.111        1.459
  WS02006231           JUNCTION        0.60          0.222        1.308
  WS02006232           JUNCTION        1.13          0.919        0.561
  WS02006234           JUNCTION        0.69          0.910        0.330
  WS02006235           JUNCTION        1.09          0.604        0.686
  WS02006238           JUNCTION        1.12          0.594        0.836
  WS02006239           JUNCTION        1.08          0.600        0.690
  WS02006240           JUNCTION        1.08          1.112        0.278
  WS02006242           JUNCTION        1.14          0.645        0.175
  WS02006243           JUNCTION        1.07          0.659        0.111
  WS02006245           JUNCTION        1.06          0.448        0.402
  WS02006247           JUNCTION        1.06          0.448        0.312
  WS02006248           JUNCTION        1.04          0.375        0.005
  WS02006249           JUNCTION        1.04          0.390        0.000
  WS02006251           JUNCTION        0.61          0.364        0.816
  WS02006252           JUNCTION        1.41          1.100        0.000
  WS02006256           JUNCTION        6.32          2.050        0.000
  YS02001580           JUNCTION        0.47          0.450        0.000
  YS02001583           JUNCTION        0.47          0.428        0.072
  YS02001586           JUNCTION        0.59          0.510        0.000
  YS02001590           JUNCTION        0.66          0.750        0.000
  YS02001593           JUNCTION        0.67          0.840        0.000
  YS02001596           JUNCTION        0.77          1.046        0.024
  YS02001600           JUNCTION        0.91          1.190        0.000
  YS02001601           JUNCTION        1.31          1.440        0.000
  YS02001602           JUNCTION        1.18          1.270        0.000
  YS02001605           JUNCTION        1.11          1.179        0.001
  YS02001607           JUNCTION        0.61          0.650        0.030
  YS02001610           JUNCTION        0.63          0.680        0.000
  YS02001613           JUNCTION        0.60          0.668        0.032
  YS02001616           JUNCTION        0.56          0.607        0.003
  YS02001619           JUNCTION        0.55          0.597        0.013
  YS02001622           JUNCTION        0.55          0.568        0.052
  YS02001625           JUNCTION        0.72          0.780        0.000
  YS02001629           JUNCTION        0.48          0.470        0.000
  YS02001633           JUNCTION        0.73          0.992        0.068
  YS02001641           JUNCTION        0.63          0.944        0.156
  YS02001644           JUNCTION        0.59          0.920        0.000
  YS02001647           JUNCTION        0.40          0.793        0.107
  YS02001649           JUNCTION        0.47          0.976        0.074
  YS02001652           JUNCTION        0.31          0.860        0.270
  YS02001655           JUNCTION        0.18          0.912        0.288
  YS02001658           JUNCTION        0.07          0.912        0.388
  YS02001748           JUNCTION        0.01          0.658        0.532
  YS02001751           JUNCTION        0.09          0.942        0.258
  YS02001754           JUNCTION        0.19          0.912        0.238
  YS02001757           JUNCTION        0.49          0.971        0.239
  YS02001759           JUNCTION        0.40          0.959        0.251
  YS02001762           JUNCTION        0.39          0.912        0.238
  YS02001765           JUNCTION        0.35          0.887        0.213
  YS02001767           JUNCTION        0.33          0.875        0.155
  YS02001770           JUNCTION        0.31          0.920        0.000
  YS02001774           JUNCTION        0.37          1.032        0.018
  YS02001779           JUNCTION        0.21          0.680        0.000
  YS02001783           JUNCTION        0.45          0.623        0.977
  YS02001784           JUNCTION        0.42          0.453        1.037
  YS02001786           JUNCTION        0.33          0.186        1.244
  YS02001882           JUNCTION        0.39          0.736        0.094
  YS02001884           JUNCTION        0.40          0.753        0.117
  YS02001887           JUNCTION        0.44          0.801        0.149
  YS02001890           JUNCTION        0.45          0.760        0.000
  YS02001895           JUNCTION        0.39          0.580        0.170
  YS02001898           JUNCTION        0.38          0.557        0.183
  YS02001901           JUNCTION        0.42          0.692        0.178
  YS02001904           JUNCTION        0.42          0.646        0.204
  YS02001907           JUNCTION        0.65          0.950        0.000
  YS02001910           JUNCTION        0.48          1.035        0.065
  YS02001915           JUNCTION        0.39          1.000        0.000
  YS02001918           JUNCTION        0.31          0.810        0.000
  YS02001920           JUNCTION        0.33          1.140        0.000
  YS02001923           JUNCTION        0.01          0.820        0.000
  YS02001926           JUNCTION        0.01          0.900        0.000
  YS02001929           JUNCTION        0.01          0.780        0.000
  YS02006553           JUNCTION        0.66          1.034        0.156
  YS02006556           JUNCTION        0.56          1.055        0.295
  YS02006558           JUNCTION        0.54          1.055        0.345
  YS02006561           JUNCTION        0.28          0.284        0.866
  YS02163301           JUNCTION        0.71          0.913        0.117
  YS02163601           JUNCTION        0.75          1.030        0.050
  YS02164001           JUNCTION        0.65          0.943        0.157
  
  
  *********************
  Node Flooding Summary
  *********************
  
  Flooding refers to all water that overflows a node, whether it ponds or not.
  --------------------------------------------------------------------------
                                                             Total   Maximum
                                 Maximum   Time of Max       Flood    Ponded
                        Hours       Rate    Occurrence      Volume     Depth
  Node                 Flooded       LPS   days hr:min    10^6 ltr    Meters
  --------------------------------------------------------------------------
  WS02006112              0.01   1547.89      0  00:00       0.047     0.000
  WS02006249              0.61    102.88      0  02:12       0.154     0.000
  WS02006252              0.01      0.91      0  02:09       0.000     0.000
  WS02006256              0.82    285.69      0  05:15       0.290     0.000
  YS02001580              0.01    101.77      0  01:57       0.000     0.000
  YS02001586              0.36    192.33      0  02:04       0.137     0.000
  YS02001590              0.01     38.55      0  01:54       0.000     0.000
  YS02001593              0.01      7.66      0  01:57       0.000     0.000
  YS02001600              0.01      5.60      0  01:57       0.000     0.000
  YS02001601              0.52    860.99      0  02:03       0.885     0.000
  YS02001602              0.39     62.00      0  02:13       0.078     0.000
  YS02001610              0.33    400.99      0  02:05       0.304     0.000
  YS02001625              0.28    999.29      0  02:04       0.474     0.000
  YS02001629              0.06    190.05      0  01:56       0.014     0.000
  YS02001644              0.05    301.50      0  02:02       0.029     0.000
  YS02001770              0.01     26.65      0  02:00       0.000     0.000
  YS02001779              0.02    244.14      0  02:00       0.003     0.000
  YS02001890              0.09    106.69      0  02:01       0.021     0.000
  YS02001907              0.26   1188.10      0  02:01       0.614     0.000
  YS02001915              0.01     16.35      0  02:00       0.000     0.000
  YS02001918              0.01    254.90      0  02:00       0.003     0.000
  YS02001920              0.01     90.33      0  02:00       0.000     0.000
  YS02001923              0.01    266.93      0  02:00       0.001     0.000
  YS02001926              0.01    131.83      0  02:00       0.001     0.000
  YS02001929              0.01    242.76      0  02:00       0.001     0.000
  
  
  **********************
  Storage Volume Summary
  **********************
  
  ------------------------------------------------------------------------------------------------
                         Average    Avg   Evap  Exfil     Maximum    Max    Time of Max    Maximum
                          Volume   Pcnt   Pcnt   Pcnt      Volume   Pcnt     Occurrence    Outflow
  Storage Unit           1000 m³   Full   Loss   Loss     1000 m³   Full    days hr:min        LPS
  ------------------------------------------------------------------------------------------------
  CC-storage               1.995   31.1    0.0    0.0       3.668   57.2       0  02:31    1766.00
  JK-storage               0.074   25.3    0.0    0.0       0.213   73.0       0  01:59    2300.00
  
  
  ***********************
  Outfall Loading Summary
  ***********************
  
  -----------------------------------------------------------
                         Flow       Avg       Max       Total
                         Freq      Flow      Flow      Volume
  Outfall Node           Pcnt       LPS       LPS    10^6 ltr
  -----------------------------------------------------------
  CC-1                  28.10    683.00    683.00       2.732
  CC-2                  46.48    683.00    683.00       5.128
  JK-1                   8.11   1000.00   1000.00       1.456
  JK-2                  10.54   1000.00   1000.00       1.371
  WSC                   99.99    181.58    555.12       3.841
  -----------------------------------------------------------
  System                38.64   3547.58   3920.62      14.527
  
  
  ********************
  Link Flow Summary
  ********************
  
  -----------------------------------------------------------------------------
                                 Maximum  Time of Max   Maximum    Max/    Max/
                                  |Flow|   Occurrence   |Veloc|    Full    Full
  Link                 Type          LPS  days hr:min     m/sec    Flow   Depth
  -----------------------------------------------------------------------------
  1                    CONDUIT    555.12     0  02:38      2.83    0.19    0.30
  WS02003060WS02003069 CONDUIT    553.37     0  02:35      1.64    0.22    0.34
  WS02003066WSF200     CONDUIT    536.91     0  02:34      2.85    0.09    0.22
  WS02003067WS02003066 CONDUIT    536.85     0  02:34      1.21    0.17    0.42
  WS02003069WS02003072 CONDUIT    553.43     0  02:36      1.37    0.27    0.39
  WS02003072WS02003073 CONDUIT    553.35     0  02:37      1.44    1.20    0.37
  WS02004401WS02004402 CONDUIT   1171.33     0  00:01      2.51    1.41    0.86
  WS02004402WS02004403 CONDUIT    884.75     0  00:01      2.16    1.27    0.88
  WS02004403WS02004404 CONDUIT    832.43     0  00:01      1.96    0.60    0.93
  WS02004404WS02004405 CONDUIT    776.45     0  00:01      2.26    7.61    0.96
  WS02004405WS02004406 CONDUIT    711.76     0  00:02      2.15    1.40    0.96
  WS02004406WS02004407 CONDUIT    538.06     0  02:32      1.04    0.24    0.63
  WS02004407WS02004409 CONDUIT    537.60     0  02:32      1.95    0.19    0.48
  WS02004409WS02004410 CONDUIT    537.39     0  02:33      1.31    0.70    0.67
  WS02004410WS02004411 CONDUIT    537.25     0  02:33      1.19    0.73    0.69
  WS02004411WS02004412 CONDUIT    537.03     0  02:33      1.08    0.76    0.69
  WS02004412WS02004413 CONDUIT    537.17     0  02:34      1.10    0.36    0.78
  WS02004413WS02003067 CONDUIT    536.80     0  02:34      1.11    0.23    0.59
  WS02006109WS02006110 CONDUIT   1306.78     0  00:00      3.14    2.51    1.00
  WS02006110WS02006113 CONDUIT    559.60     0  02:02      1.34    0.51    1.00
  WS02006111WS02006112 CONDUIT   2307.30     0  00:00      9.18    1.10    0.91
  WS02006112WS02006115 CONDUIT    899.27     0  00:00      1.16    0.53    1.00
  WS02006113WS02006111 CONDUIT   1176.04     0  00:00      2.47    1.41    1.00
  WS02006115WS02006116 CONDUIT   1098.16     0  00:01      1.72    1.41    1.00
  WS02006116WS02004401 CONDUIT   1677.78     0  00:00      2.92    2.31    0.84
  WS02006228WS02006109 CONDUIT    547.15     0  02:02      1.40    2.39    1.00
  WS02006229WS02006228 CONDUIT    548.03     0  02:02      1.24    1.82    1.00
  WS02006230WS02006229 CONDUIT    548.58     0  02:02      1.43   12.21    1.00
  WS02006231WS02006230 CONDUIT    539.93     0  02:01      1.51    8.19    1.00
  WS02006232WS02006231 CONDUIT    541.98     0  02:01      1.41    1.14    1.00
  WS02006234WS02006232 CONDUIT    542.40     0  02:01      1.41    1.10    1.00
  WS02006235WS02006234 CONDUIT    543.30     0  02:01      1.41    5.73    1.00
  WS02006238WS02006235 CONDUIT    416.90     0  02:45      1.67    0.93    1.00
  WS02006239WS02006238 CONDUIT    417.17     0  02:45      1.27    1.33    1.00
  WS02006240WS02006239 CONDUIT    417.14     0  02:45      1.33    1.31    1.00
  WS02006242WS02006240 CONDUIT    415.57     0  02:45      1.17    1.65    1.00
  WS02006243WS02006242 CONDUIT    415.91     0  02:45      1.45    0.89    1.00
  WS02006245WS02006243 CONDUIT    415.23     0  02:45      1.46    1.23    1.00
  WS02006247WS02006245 CONDUIT    414.78     0  02:45      1.42    3.29    1.00
  WS02006248WS02006247 CONDUIT    413.80     0  02:45      1.53    0.90    1.00
  WS02006249WS02006248 CONDUIT    417.63     0  00:05      1.54    2.29    1.00
  WS02006251WS02006249 CONDUIT    824.67     0  00:05      2.86    2.38    1.00
  WS02006252WS02006251 CONDUIT    460.01     0  00:05     16.99    1.69    1.00
  WS02006256WS02006235 CONDUIT    288.51     0  05:05      4.22    3.05    1.00
  WSF200WS02003060     CONDUIT    537.13     0  02:35      2.06    0.12    0.28
  YS02001580YS02001583 CONDUIT    121.57     0  01:57      0.73    0.47    1.00
  YS02001583YS02001586 CONDUIT    172.54     0  01:56      0.75    0.26    1.00
  YS02001586YS02001590 CONDUIT    317.95     0  02:03      1.26    0.56    1.00
  YS02001590YS02001593 CONDUIT    318.06     0  02:04      1.12    2.00    1.00
  YS02001593YS02001596 CONDUIT    318.01     0  02:04      1.74    0.50    1.00
  YS02001596YS02001600 CONDUIT    318.00     0  02:12      1.22    0.62    1.00
  YS02001600YS02001601 CONDUIT    317.94     0  02:11      1.12    0.55    1.00
  YS02001601YS02001602 CONDUIT    527.17     0  01:56      1.86    1.90    1.00
  YS02001602YS02001605 CONDUIT    527.46     0  01:56      1.87   11.16    1.00
  YS02001605YS02001607 CONDUIT    528.05     0  01:56      1.87    2.90    1.00
  YS02001607YS02001610 CONDUIT    532.19     0  01:56      0.68    0.51    1.00
  YS02001610YS02001613 CONDUIT    534.75     0  01:56      0.68    0.62    1.00
  YS02001613YS02001616 CONDUIT    539.69     0  01:56      0.69    0.46    1.00
  YS02001616YS02001619 CONDUIT    509.74     0  01:56      0.67    0.88    1.00
  YS02001619YS02001622 CONDUIT    933.11     0  01:58      1.20    1.38    1.00
  YS02001622YS02001625 CONDUIT    934.15     0  01:56      1.19    0.50    1.00
  YS02001625YS02001629 CONDUIT    935.16     0  01:56      1.19    0.44    1.00
  YS02001629YS02163301 CONDUIT    932.56     0  01:58      1.19    1.15    1.00
  YS02001633YS02163601 CONDUIT   1399.15     0  01:58      1.78    1.47    1.00
  YS02001641YS02001644 CONDUIT   1392.51     0  01:58      1.77    4.50    1.00
  YS02001644YS02001647 CONDUIT   1842.85     0  01:59      2.36    1.08    1.00
  YS02001647YS02001649 CONDUIT   1858.93     0  01:59      2.39    0.98    1.00
  YS02001649YS02001757 CONDUIT   2148.87     0  01:59      2.74    1.30    1.00
  YS02001652YS02001649 CONDUIT    730.44     0  02:02      0.93    0.36    1.00
  YS02001655YS02001652 CONDUIT    727.86     0  02:02      1.35    0.35    1.00
  YS02001658YS02001655 CONDUIT    726.35     0  02:02      1.95    0.31    1.00
  YS02001661YS02001658 CONDUIT    794.43     0  02:01      2.39    0.31    1.00
  YS02001664YS02001661 CONDUIT    815.00     0  02:02      2.41    0.26    0.72
  YS02001745YS02001748 CONDUIT    668.39     0  02:01      2.30    0.26    0.83
  YS02001748YS02001751 CONDUIT    446.76     0  02:02      1.77    0.23    1.00
  YS02001751YS02001754 CONDUIT    446.93     0  02:02      1.48    0.22    1.00
  YS02001754YS02001757 CONDUIT    446.94     0  02:02      0.57    0.18    1.00
  YS02001757CaochengTiaoxuchi CONDUIT   3484.56     0  02:02      4.87    1.51    1.00
  YS02001759YS02001757 CONDUIT   1334.58     0  02:02      1.70    0.95    1.00
  YS02001762YS02001759 CONDUIT    785.12     0  02:02      1.00    0.90    1.00
  YS02001765YS02001762 CONDUIT    783.96     0  02:02      1.00    0.74    1.00
  YS02001767YS02001765 CONDUIT    782.98     0  02:02      1.00    0.98    1.00
  YS02001770YS02001767 CONDUIT    782.08     0  02:02      1.00    3.10    1.00
  YS02001774YS02001770 CONDUIT    309.78     0  02:00      0.39    0.20    1.00
  YS02001779YS02001774 CONDUIT    296.94     0  02:00      0.38    0.15    1.00
  YS02001783YS02001784 CONDUIT   1156.98     0  02:01      2.30    1.59    1.00
  YS02001784YS02001785 CONDUIT   1158.02     0  02:01      2.30    2.69    1.00
  YS02001786YS02001788 CONDUIT   1158.75     0  02:01      2.48    2.23    0.89
  YS02001788YS02001790 CONDUIT   1172.62     0  02:01      2.71    0.86    0.84
  YS02001790YS02001791 CONDUIT   1288.31     0  02:00      3.43    1.40    0.70
  YS02001791YS02001793 CONDUIT   1244.86     0  02:00      6.75    0.53    0.44
  YS02001793JiankangQianchi CONDUIT   1311.94     0  02:00      2.61    0.10    0.64
  YS02001882YS02001884 CONDUIT     51.95     0  01:57      0.11    0.06    1.00
  YS02001884YS02001887 CONDUIT     71.24     0  01:56      0.09    0.09    1.00
  YS02001887YS02001890 CONDUIT    605.27     0  02:02      0.77    1.04    1.00
  YS02001890YS02001895 CONDUIT    515.51     0  02:04      0.66    0.24    1.00
  YS02001895YS02001898 CONDUIT    515.24     0  02:04      0.66    0.89    1.00
  YS02001898YS02001901 CONDUIT    515.40     0  02:04      0.66    0.33    1.00
  YS02001901YS02001904 CONDUIT    515.16     0  02:04      0.66    0.80    1.00
  YS02001904YS02001907 CONDUIT    515.48     0  02:04      0.66    0.18    1.00
  YS02001907YS02006553 CONDUIT    795.67     0  02:16      0.88    0.94    1.00
  YS02001910YS02001907 CONDUIT   1073.87     0  02:01      1.37    0.61    1.00
  YS02001915YS02001910 CONDUIT   1074.05     0  02:00      1.37    0.53    1.00
  YS02001918YS02001915 CONDUIT    458.65     0  01:59      0.58    0.25    1.00
  YS02001920YS02001918 CONDUIT    453.05     0  01:59      0.64    0.44    1.00
  YS02001923YS02001920 CONDUIT    454.68     0  01:59      0.70    0.20    1.00
  YS02001926YS02001923 CONDUIT    435.00     0  01:59      0.97    0.62    1.00
  YS02001929YS02001926 CONDUIT    406.78     0  02:00      1.15    0.19    1.00
  YS02006553YS02006556 CONDUIT    796.08     0  02:16      1.01    0.68    1.00
  YS02006556YS02006558 CONDUIT    796.98     0  02:16      1.01    0.63    1.00
  YS02006558YS02006561 CONDUIT   1165.04     0  01:59      4.12    2.58    1.00
  YS02006561YS02001783 CONDUIT   1156.92     0  02:01      2.30    0.60    1.00
  YS02163301YS02001633 CONDUIT    932.37     0  01:58      1.19    0.88    1.00
  YS02163601YS02164001 CONDUIT   1397.98     0  01:58      1.78    1.24    1.00
  YS02164001YS02001641 CONDUIT   1394.49     0  01:58      1.78    1.90    1.00
  CC-R1                PUMP       683.00     0  01:40              1.00
  CC-R2                PUMP       683.00     0  00:15              1.00
  CC-S1                PUMP       200.00     0  00:05              1.00
  CC-S2                PUMP       200.00     0  00:05              1.00
  JK-R1                PUMP      1000.00     0  00:05              1.00
  JK-R2                PUMP      1000.00     0  00:05              1.00
  JK-S                 PUMP       300.00     0  00:15              1.00
  
  
  ***************************
  Flow Classification Summary
  ***************************
  
  -------------------------------------------------------------------------------------
                      Adjusted    ---------- Fraction of Time in Flow Class ---------- 
                       /Actual         Up    Down  Sub   Sup   Up    Down  Norm  Inlet 
  Conduit               Length    Dry  Dry   Dry   Crit  Crit  Crit  Crit  Ltd   Ctrl  
  -------------------------------------------------------------------------------------
  1                       1.00   0.00  0.00  0.00  0.00  1.00  0.00  0.00  0.33  0.00
  WS02003060WS02003069    1.00   0.00  0.00  0.00  0.96  0.04  0.00  0.00  0.79  0.00
  WS02003066WSF200        1.00   0.03  0.00  0.00  0.00  0.97  0.00  0.00  0.88  0.00
  WS02003067WS02003066    1.00   0.02  0.01  0.00  0.97  0.00  0.00  0.00  0.00  0.00
  WS02003069WS02003072    1.00   0.00  0.00  0.00  0.99  0.01  0.00  0.00  0.84  0.00
  WS02003072WS02003073    1.00   0.00  0.00  0.00  0.00  0.00  0.00  1.00  0.00  0.00
  WS02004401WS02004402    1.00   0.00  0.00  0.00  1.00  0.00  0.00  0.00  0.00  0.00
  WS02004402WS02004403    1.00   0.00  0.00  0.00  1.00  0.00  0.00  0.00  0.00  0.00
  WS02004403WS02004404    1.00   0.00  0.00  0.00  1.00  0.00  0.00  0.00  0.00  0.00
  WS02004404WS02004405    1.00   0.00  0.00  0.00  1.00  0.00  0.00  0.00  0.00  0.00
  WS02004405WS02004406    1.00   0.00  0.00  0.00  1.00  0.00  0.00  0.00  0.00  0.00
  WS02004406WS02004407    1.00   0.00  0.00  0.00  1.00  0.00  0.00  0.00  0.00  0.00
  WS02004407WS02004409    1.00   0.00  0.00  0.00  0.99  0.01  0.00  0.00  0.99  0.00
  WS02004409WS02004410    1.00   0.00  0.00  0.00  0.99  0.00  0.00  0.00  0.00  0.00
  WS02004410WS02004411    1.00   0.01  0.00  0.00  0.99  0.00  0.00  0.00  0.00  0.00
  WS02004411WS02004412    1.00   0.01  0.00  0.00  0.99  0.00  0.00  0.00  0.00  0.00
  WS02004412WS02004413    1.00   0.01  0.00  0.00  0.99  0.00  0.00  0.00  0.00  0.00
  WS02004413WS02003067    1.00   0.01  0.01  0.00  0.00  0.00  0.98  0.00  0.00  0.00
  WS02006109WS02006110    1.00   0.00  0.00  0.00  1.00  0.00  0.00  0.00  0.00  0.00
  WS02006110WS02006113    1.00   0.00  0.00  0.00  1.00  0.00  0.00  0.00  0.00  0.00
  WS02006111WS02006112    1.00   0.00  0.00  0.00  1.00  0.00  0.00  0.00  1.00  0.00
  WS02006112WS02006115    1.00   0.00  0.00  0.00  1.00  0.00  0.00  0.00  0.00  0.00
  WS02006113WS02006111    1.00   0.00  0.00  0.00  0.01  0.99  0.00  0.00  0.09  0.00
  WS02006115WS02006116    1.00   0.00  0.00  0.00  1.00  0.00  0.00  0.00  0.00  0.00
  WS02006116WS02004401    1.00   0.00  0.00  0.00  1.00  0.00  0.00  0.00  0.00  0.00
  WS02006228WS02006109    1.00   0.00  0.00  0.00  1.00  0.00  0.00  0.00  0.00  0.00
  WS02006229WS02006228    1.00   0.00  0.00  0.00  1.00  0.00  0.00  0.00  0.00  0.00
  WS02006230WS02006229    1.00   0.00  0.00  0.00  1.00  0.00  0.00  0.00  0.04  0.00
  WS02006231WS02006230    1.00   0.00  0.00  0.00  0.16  0.00  0.83  0.00  0.00  0.00
  WS02006232WS02006231    1.00   0.00  0.00  0.00  0.99  0.00  0.01  0.00  0.00  0.00
  WS02006234WS02006232    1.00   0.00  0.00  0.00  0.99  0.00  0.00  0.00  0.07  0.00
  WS02006235WS02006234    1.00   0.01  0.00  0.00  0.88  0.00  0.10  0.00  0.00  0.00
  WS02006238WS02006235    1.00   0.01  0.00  0.00  0.98  0.01  0.00  0.00  0.01  0.00
  WS02006239WS02006238    1.00   0.01  0.00  0.00  0.98  0.00  0.00  0.00  0.17  0.00
  WS02006240WS02006239    1.00   0.01  0.00  0.00  0.64  0.00  0.00  0.35  0.06  0.00
  WS02006242WS02006240    1.00   0.01  0.00  0.00  0.97  0.00  0.01  0.00  0.00  0.00
  WS02006243WS02006242    1.00   0.01  0.00  0.00  0.98  0.00  0.00  0.01  0.70  0.00
  WS02006245WS02006243    1.00   0.01  0.00  0.00  0.72  0.00  0.00  0.27  0.00  0.00
  WS02006247WS02006245    1.00   0.01  0.00  0.00  0.97  0.00  0.00  0.02  0.00  0.00
  WS02006248WS02006247    1.00   0.01  0.00  0.00  0.98  0.00  0.00  0.01  0.56  0.00
  WS02006249WS02006248    1.00   0.00  0.01  0.00  0.33  0.00  0.66  0.00  0.00  0.00
  WS02006251WS02006249    1.00   0.00  0.00  0.00  0.99  0.01  0.00  0.00  0.66  0.00
  WS02006252WS02006251    1.00   0.01  0.50  0.00  0.08  0.00  0.41  0.00  0.00  0.00
  WS02006256WS02006235    1.00   0.01  0.00  0.00  0.96  0.03  0.00  0.00  0.01  0.00
  WSF200WS02003060        1.00   0.00  0.03  0.00  0.54  0.43  0.00  0.00  0.75  0.00
  YS02001580YS02001583    1.00   0.24  0.59  0.00  0.17  0.00  0.00  0.00  0.68  0.00
  YS02001583YS02001586    1.00   0.43  0.34  0.00  0.23  0.00  0.00  0.00  0.68  0.00
  YS02001586YS02001590    1.00   0.13  0.00  0.00  0.41  0.04  0.00  0.42  0.37  0.00
  YS02001590YS02001593    1.00   0.13  0.01  0.00  0.10  0.00  0.77  0.00  0.00  0.00
  YS02001593YS02001596    1.00   0.14  0.00  0.00  0.11  0.01  0.00  0.74  0.02  0.00
  YS02001596YS02001600    1.00   0.14  0.00  0.00  0.18  0.01  0.00  0.67  0.05  0.00
  YS02001600YS02001601    1.00   0.13  0.01  0.00  0.86  0.00  0.00  0.00  0.62  0.00
  YS02001601YS02001602    1.00   0.13  0.01  0.00  0.86  0.00  0.00  0.00  0.00  0.00
  YS02001602YS02001605    1.00   0.14  0.00  0.00  0.86  0.00  0.00  0.00  0.00  0.00
  YS02001605YS02001607    1.00   0.14  0.00  0.00  0.86  0.00  0.00  0.00  0.00  0.00
  YS02001607YS02001610    1.00   0.13  0.01  0.00  0.86  0.00  0.00  0.00  0.02  0.00
  YS02001610YS02001613    1.00   0.13  0.00  0.00  0.87  0.00  0.00  0.00  0.01  0.00
  YS02001613YS02001616    1.00   0.13  0.00  0.00  0.87  0.00  0.00  0.00  0.01  0.00
  YS02001616YS02001619    1.00   0.13  0.00  0.00  0.87  0.00  0.00  0.00  0.00  0.00
  YS02001619YS02001622    1.00   0.13  0.00  0.00  0.87  0.00  0.00  0.00  0.29  0.00
  YS02001622YS02001625    1.00   0.13  0.00  0.00  0.87  0.00  0.00  0.00  0.05  0.00
  YS02001625YS02001629    1.00   0.13  0.05  0.00  0.14  0.00  0.68  0.00  0.00  0.00
  YS02001629YS02163301    1.00   0.16  0.01  0.00  0.83  0.00  0.00  0.00  0.00  0.00
  YS02001633YS02163601    1.00   0.00  0.01  0.00  0.99  0.00  0.00  0.00  0.15  0.00
  YS02001641YS02001644    1.00   0.00  0.01  0.00  0.99  0.00  0.00  0.00  0.00  0.00
  YS02001644YS02001647    1.00   0.00  0.18  0.00  0.82  0.00  0.00  0.00  0.00  0.00
  YS02001647YS02001649    1.00   0.00  0.18  0.00  0.50  0.32  0.00  0.00  0.58  0.00
  YS02001649YS02001757    1.00   0.00  0.00  0.00  0.65  0.35  0.00  0.00  0.52  0.00
  YS02001652YS02001649    1.00   0.00  0.00  0.00  0.96  0.04  0.00  0.00  0.76  0.00
  YS02001655YS02001652    1.00   0.00  0.00  0.00  0.16  0.01  0.00  0.82  0.07  0.00
  YS02001658YS02001655    1.00   0.00  0.14  0.00  0.62  0.24  0.00  0.00  0.73  0.00
  YS02001661YS02001658    1.00   0.14  0.00  0.00  0.46  0.40  0.00  0.00  0.73  0.00
  YS02001664YS02001661    1.00   0.13  0.00  0.00  0.75  0.13  0.00  0.00  0.86  0.00
  YS02001745YS02001748    1.00   0.00  0.00  0.00  0.05  0.01  0.00  0.94  0.04  0.00
  YS02001748YS02001751    1.00   0.00  0.00  0.00  0.78  0.22  0.00  0.00  0.81  0.00
  YS02001751YS02001754    1.00   0.00  0.00  0.00  0.11  0.01  0.00  0.89  0.02  0.00
  YS02001754YS02001757    1.00   0.00  0.00  0.00  1.00  0.00  0.00  0.00  0.88  0.00
  YS02001757CaochengTiaoxuchi    1.00   0.00  0.00  0.00  0.95  0.05  0.00  0.00  0.86  0.00
  YS02001759YS02001757    1.00   0.00  0.00  0.00  1.00  0.00  0.00  0.00  0.66  0.00
  YS02001762YS02001759    1.00   0.00  0.00  0.00  1.00  0.00  0.00  0.00  0.04  0.00
  YS02001765YS02001762    1.00   0.00  0.00  0.00  1.00  0.00  0.00  0.00  0.76  0.00
  YS02001767YS02001765    1.00   0.00  0.00  0.00  1.00  0.00  0.00  0.00  0.00  0.00
  YS02001770YS02001767    1.00   0.00  0.00  0.00  1.00  0.00  0.00  0.00  0.00  0.00
  YS02001774YS02001770    1.00   0.00  0.13  0.00  0.69  0.00  0.17  0.00  0.03  0.00
  YS02001779YS02001774    1.00   0.00  0.00  0.00  1.00  0.00  0.00  0.00  0.80  0.00
  YS02001783YS02001784    1.00   0.00  0.19  0.00  0.81  0.00  0.00  0.00  0.56  0.00
  YS02001784YS02001785    1.00   0.00  0.00  0.00  1.00  0.00  0.00  0.00  0.17  0.00
  YS02001786YS02001788    1.00   0.00  0.00  0.00  0.79  0.21  0.00  0.00  0.00  0.00
  YS02001788YS02001790    1.00   0.00  0.00  0.00  0.21  0.79  0.00  0.00  0.82  0.00
  YS02001790YS02001791    1.00   0.00  0.00  0.00  0.01  0.99  0.00  0.00  0.16  0.00
  YS02001791YS02001793    1.00   0.00  0.00  0.00  0.00  1.00  0.00  0.00  0.01  0.00
  YS02001793JiankangQianchi    1.00   0.00  0.00  0.00  0.98  0.02  0.00  0.00  0.98  0.00
  YS02001882YS02001884    1.00   0.15  0.01  0.00  0.84  0.00  0.00  0.00  0.00  0.00
  YS02001884YS02001887    1.00   0.06  0.05  0.00  0.89  0.00  0.00  0.00  0.00  0.00
  YS02001887YS02001890    1.00   0.00  0.00  0.00  0.97  0.00  0.03  0.00  0.00  0.00
  YS02001890YS02001895    1.00   0.00  0.17  0.00  0.83  0.00  0.00  0.00  0.00  0.00
  YS02001895YS02001898    1.00   0.17  0.00  0.00  0.81  0.00  0.02  0.00  0.00  0.00
  YS02001898YS02001901    1.00   0.17  0.00  0.00  0.83  0.00  0.00  0.00  0.01  0.00
  YS02001901YS02001904    1.00   0.17  0.00  0.00  0.83  0.00  0.00  0.00  0.00  0.00
  YS02001904YS02001907    1.00   0.00  0.17  0.00  0.83  0.00  0.00  0.00  0.00  0.00
  YS02001907YS02006553    1.00   0.00  0.02  0.00  0.98  0.00  0.00  0.00  0.00  0.00
  YS02001910YS02001907    1.00   0.00  0.00  0.00  0.97  0.00  0.00  0.03  0.12  0.00
  YS02001915YS02001910    1.00   0.00  0.00  0.00  0.96  0.04  0.00  0.00  0.17  0.00
  YS02001918YS02001915    1.00   0.00  0.00  0.00  0.98  0.02  0.00  0.00  0.77  0.00
  YS02001920YS02001918    1.00   0.00  0.00  0.00  1.00  0.00  0.00  0.00  0.01  0.00
  YS02001923YS02001920    1.00   0.00  0.00  0.00  1.00  0.00  0.00  0.00  0.94  0.00
  YS02001926YS02001923    1.00   0.00  0.07  0.00  0.05  0.00  0.88  0.00  0.00  0.00
  YS02001929YS02001926    1.00   0.00  0.13  0.00  0.87  0.00  0.00  0.00  0.83  0.00
  YS02006553YS02006556    1.00   0.01  0.00  0.00  0.99  0.00  0.00  0.00  0.03  0.00
  YS02006556YS02006558    1.00   0.00  0.00  0.00  1.00  0.00  0.00  0.00  0.00  0.00
  YS02006558YS02006561    1.00   0.18  0.00  0.00  0.05  0.77  0.00  0.00  0.19  0.00
  YS02006561YS02001783    1.00   0.19  0.00  0.00  0.08  0.74  0.00  0.00  0.70  0.00
  YS02163301YS02001633    1.00   0.00  0.16  0.00  0.84  0.00  0.00  0.00  0.00  0.00
  YS02163601YS02164001    1.00   0.00  0.08  0.00  0.92  0.00  0.00  0.00  0.00  0.00
  YS02164001YS02001641    1.00   0.01  0.07  0.00  0.92  0.00  0.00  0.00  0.06  0.00
  
  
  *************************
  Conduit Surcharge Summary
  *************************
  
  ----------------------------------------------------------------------------
                                                           Hours        Hours 
                         --------- Hours Full --------   Above Full   Capacity
  Conduit                Both Ends  Upstream  Dnstream   Normal Flow   Limited
  ----------------------------------------------------------------------------
  WS02003072WS02003073        0.01      0.01      0.01      0.59         0.01
  WS02004401WS02004402        0.01      0.01      0.01      0.01         0.01
  WS02004402WS02004403        0.01      0.01      0.01      0.01         0.01
  WS02004404WS02004405        0.01      0.01      0.01      2.18         0.01
  WS02004405WS02004406        0.01      0.01      0.01      0.50         0.01
  WS02006109WS02006110        0.57      0.58      1.14      0.60         0.01
  WS02006110WS02006113        0.01      0.01      1.13      0.01         0.01
  WS02006111WS02006112        0.01      0.01      1.42      0.01         0.01
  WS02006112WS02006115        0.01      0.01      0.51      0.01         0.01
  WS02006113WS02006111        0.01      0.01      0.01      0.01         0.01
  WS02006115WS02006116        0.01      0.01      0.01      0.01         0.01
  WS02006116WS02004401        0.01      0.01      0.01      0.01         0.01
  WS02006228WS02006109        1.08      1.14      1.08      1.66         1.08
  WS02006229WS02006228        1.08      1.09      1.08      1.39         1.07
  WS02006230WS02006229        1.23      1.34      1.23      2.47         1.23
  WS02006231WS02006230        0.57      0.57      0.61      2.13         0.01
  WS02006232WS02006231        0.60      0.60      1.13      0.64         0.01
  WS02006234WS02006232        1.07      1.08      1.13      0.62         0.63
  WS02006235WS02006234        0.68      0.69      1.09      2.04         0.01
  WS02006238WS02006235        1.11      1.11      1.14      0.01         0.01
  WS02006239WS02006238        1.11      1.13      1.12      1.25         1.04
  WS02006240WS02006239        1.08      1.10      1.08      1.24         0.98
  WS02006242WS02006240        1.08      1.08      1.17      1.48         0.01
  WS02006243WS02006242        1.07      1.07      1.14      0.01         0.01
  WS02006245WS02006243        1.06      1.06      1.07      0.67         0.54
  WS02006247WS02006245        1.06      1.07      1.06      2.01         1.06
  WS02006248WS02006247        1.05      1.05      1.06      0.01         0.01
  WS02006249WS02006248        1.04      1.04      1.04      1.98         0.01
  WS02006251WS02006249        1.04      1.04      1.04      1.33         1.02
  WS02006252WS02006251        1.36      1.37      1.40      1.37         0.01
  WS02006256WS02006235        2.07      2.09      6.21      0.88         0.01
  YS02001580YS02001583        0.47      0.47      0.52      0.01         0.01
  YS02001583YS02001586        0.47      0.47      0.59      0.01         0.01
  YS02001586YS02001590        0.60      0.60      0.66      0.01         0.01
  YS02001590YS02001593        0.67      0.67      0.68      0.71         0.01
  YS02001593YS02001596        0.67      0.67      0.77      0.01         0.01
  YS02001596YS02001600        0.81      0.81      0.91      0.01         0.01
  YS02001600YS02001601        0.98      0.98      1.31      0.01         0.01
  YS02001601YS02001602        1.18      1.18      1.35      0.93         0.01
  YS02001602YS02001605        1.11      1.11      1.18      2.13         0.01
  YS02001605YS02001607        1.06      1.11      1.06      1.27         1.06
  YS02001607YS02001610        0.61      0.61      0.63      0.01         0.01
  YS02001610YS02001613        0.60      0.60      0.63      0.01         0.01
  YS02001613YS02001616        0.56      0.56      0.60      0.01         0.01
  YS02001616YS02001619        0.55      0.55      0.56      0.01         0.01
  YS02001619YS02001622        0.55      0.55      0.55      0.70         0.53
  YS02001622YS02001625        0.55      0.55      0.72      0.01         0.01
  YS02001625YS02001629        0.48      0.48      0.72      0.01         0.01
  YS02001629YS02163301        0.70      0.70      0.71      0.29         0.27
  YS02001633YS02163601        0.73      0.73      0.75      0.46         0.45
  YS02001641YS02001644        0.59      0.63      0.59      1.38         0.59
  YS02001644YS02001647        0.40      0.40      0.59      0.05         0.01
  YS02001647YS02001649        0.40      0.40      0.47      0.01         0.01
  YS02001649YS02001757        0.46      0.47      0.49      0.38         0.32
  YS02001652YS02001649        0.33      0.33      0.47      0.01         0.01
  YS02001655YS02001652        0.18      0.18      0.31      0.01         0.01
  YS02001658YS02001655        0.07      0.07      0.18      0.01         0.01
  YS02001661YS02001658        0.01      0.01      0.07      0.01         0.01
  YS02001664YS02001661        0.01      0.01      0.01      0.01         0.01
  YS02001745YS02001748        0.01      0.01      0.01      0.01         0.01
  YS02001748YS02001751        0.03      0.03      0.09      0.01         0.01
  YS02001751YS02001754        0.09      0.09      0.19      0.01         0.01
  YS02001754YS02001757        0.23      0.23      0.49      0.01         0.01
  YS02001757CaochengTiaoxuchi        0.33      0.49      0.98      0.35         0.15
  YS02001759YS02001757        0.40      0.40      0.49      0.01         0.01
  YS02001762YS02001759        0.39      0.39      0.40      0.01         0.02
  YS02001765YS02001762        0.35      0.35      0.39      0.01         0.01
  YS02001767YS02001765        0.33      0.33      0.35      0.01         0.03
  YS02001770YS02001767        0.33      0.33      0.33      0.46         0.28
  YS02001774YS02001770        0.31      0.31      0.37      0.01         0.01
  YS02001779YS02001774        0.21      0.21      0.37      0.01         0.01
  YS02001783YS02001784        0.42      0.45      0.42      0.58         0.42
  YS02001784YS02001785        0.33      0.42      0.33      0.80         0.33
  YS02001786YS02001788        0.01      0.33      0.01      0.68         0.01
  YS02001790YS02001791        0.01      0.01      0.01      0.41         0.01
  YS02001793JiankangQianchi        0.01      0.01      7.03      0.01         0.01
  YS02001882YS02001884        0.39      0.39      0.41      0.01         0.01
  YS02001884YS02001887        0.43      0.43      0.44      0.01         0.01
  YS02001887YS02001890        0.45      0.45      0.46      0.03         0.01
  YS02001890YS02001895        0.39      0.39      0.48      0.01         0.01
  YS02001895YS02001898        0.38      0.38      0.39      0.01         0.01
  YS02001898YS02001901        0.39      0.39      0.42      0.01         0.01
  YS02001901YS02001904        0.42      0.42      0.42      0.01         0.01
  YS02001904YS02001907        0.42      0.42      0.66      0.01         0.01
  YS02001907YS02006553        0.81      0.81      0.88      0.01         0.01
  YS02001910YS02001907        0.48      0.48      0.65      0.01         0.01
  YS02001915YS02001910        0.39      0.39      0.48      0.01         0.01
  YS02001918YS02001915        0.31      0.31      0.39      0.01         0.01
  YS02001920YS02001918        0.31      0.31      0.33      0.01         0.01
  YS02001923YS02001920        0.27      0.27      0.33      0.01         0.01
  YS02001926YS02001923        0.01      0.01      0.01      0.01         0.01
  YS02001929YS02001926        0.01      0.01      0.01      0.01         0.01
  YS02006553YS02006556        0.56      0.56      0.66      0.01         0.01
  YS02006556YS02006558        0.61      0.61      0.67      0.01         0.01
  YS02006558YS02006561        0.35      0.54      0.35      0.76         0.35
  YS02006561YS02001783        0.28      0.28      0.45      0.01         0.01
  YS02163301YS02001633        0.71      0.71      0.75      0.01         0.01
  YS02163601YS02164001        0.65      0.65      0.75      0.17         0.01
  YS02164001YS02001641        0.63      0.65      0.63      0.72         0.56
  
  
  ***************
  Pumping Summary
  ***************
  
  ---------------------------------------------------------------------------------------------------------
                                                  Min       Avg       Max     Total     Power    % Time Off
                        Percent   Number of      Flow      Flow      Flow    Volume     Usage    Pump Curve
  Pump                 Utilized   Start-Ups       LPS       LPS       LPS  10^6 ltr     Kw-hr    Low   High
  ---------------------------------------------------------------------------------------------------------
  CC-R1                   13.90           4      0.00    683.00    683.00     2.734     48.49    0.0   38.8
  CC-R2                   26.25          40      0.00    683.00    683.00     5.164     90.04    0.0   58.1
  CC-S1                   24.47          30      0.00    200.00    200.00     1.409      8.92    0.0    0.0
  CC-S2                   19.14           4      0.00    200.00    200.00     1.103      6.96    0.0    0.0
  JK-R1                    5.08          25      0.00   1000.00   1000.00     1.463     11.41    0.0    0.0
  JK-R2                    4.78          21      0.00   1000.00   1000.00     1.375     12.97    0.0    0.0
  JK-S                    10.22          38      0.00    300.00    300.00     0.883     15.75    0.0    0.0
  

  Analysis begun on:  Fri Aug  4 11:25:44 2023
  Analysis ended on:  Fri Aug  4 11:25:52 2023
  Total elapsed time: 00:00:08