
  OWA STORM WATER MANAGEMENT MODEL - VERSION v5.2.3 (OWA 2023-06-06)
  ------------------------------------------------------------

  WARNING 04: minimum elevation drop used for Conduit WS02004404WS02004405
  WARNING 03: negative offset ignored for Link YS02001904YS02001907
  
  ****************
  Analysis Options
  ****************
  Flow Units ............... LPS
  Process Models:
    Rainfall/Runoff ........ YES
    RDII ................... NO
    Snowmelt ............... NO
    Groundwater ............ NO
    Flow Routing ........... YES
    Ponding Allowed ........ NO
    Water Quality .......... NO
  Infiltration Method ...... HORTON
  Flow Routing Method ...... DYNWAVE
  Surcharge Method ......... EXTRAN
  Starting Date ............ 08/28/2015 08:00:00
  Ending Date .............. 08/28/2015 16:00:00
  Antecedent Dry Days ...... 8.0
  Report Time Step ......... 00:01:00
  Wet Time Step ............ 00:01:00
  Dry Time Step ............ 00:01:00
  Routing Time Step ........ 30.00 sec
  Variable Time Step ....... YES
  Maximum Trials ........... 8
  Number of Threads ........ 2
  Head Tolerance ........... 0.001500 m
  
  
  **************************        Volume         Depth
  Runoff Quantity Continuity     hectare-m            mm
  **************************     ---------       -------
  Total Precipitation ......         0.859        25.887
  Evaporation Loss .........         0.000         0.000
  Infiltration Loss ........         0.085         2.561
  Surface Runoff ...........         0.741        22.339
  Final Storage ............         0.033         0.993
  Continuity Error (%) .....        -0.021
  
  
  **************************        Volume        Volume
  Flow Routing Continuity        hectare-m      10^6 ltr
  **************************     ---------     ---------
  Dry Weather Inflow .......         0.025         0.251
  Wet Weather Inflow .......         0.740         7.404
  Groundwater Inflow .......         0.000         0.000
  RDII Inflow ..............         0.000         0.000
  External Inflow ..........         0.083         0.834
  External Outflow .........         0.917         9.169
  Flooding Loss ............         0.025         0.251
  Evaporation Loss .........         0.000         0.000
  Exfiltration Loss ........         0.000         0.000
  Initial Stored Volume ....         0.243         2.431
  Final Stored Volume ......         0.182         1.816
  Continuity Error (%) .....        -2.893
  
  
  *************************
  Highest Continuity Errors
  *************************
  Node WS02006256 (-8.20%)
  Node YS02001583 (-7.09%)
  Node YS02001884 (4.56%)
  Node YS02001774 (2.64%)
  Node WS02006111 (-1.77%)
  
  
  ***************************
  Time-Step Critical Elements
  ***************************
  Link WS02006252WS02006251 (47.08%)
  Link WS02006238WS02006235 (22.83%)
  Link WS02004404WS02004405 (12.62%)
  Link WS02003066WSF200 (6.67%)
  Link YS02006556YS02006558 (2.77%)
  
  
  ********************************
  Highest Flow Instability Indexes
  ********************************
  Link WS02006113WS02006111 (27)
  Link WS02006256WS02006235 (19)
  Link WS02006229WS02006228 (9)
  Link WS02006238WS02006235 (7)
  Link WS02006230WS02006229 (7)
  
  
  *********************************
  Most Frequent Nonconverging Nodes
  *********************************
  Node CC-1 (7.09%)
  Node CC-2 (7.09%)
  Node JK-1 (7.09%)
  Node JK-2 (7.09%)
  Node WSC (7.09%)
  
  
  *************************
  Routing Time Step Summary
  *************************
  Minimum Time Step           :     0.01 sec
  Average Time Step           :     2.55 sec
  Maximum Time Step           :    30.00 sec
  % of Time in Steady State   :     0.00
  Average Iterations per Step :     2.74
  % of Steps Not Converging   :     7.09
  Time Step Frequencies       :
     30.000 - 13.228 sec      :     0.01 %
     13.228 -  5.833 sec      :    12.16 %
      5.833 -  2.572 sec      :    30.25 %
      2.572 -  1.134 sec      :     9.98 %
      1.134 -  0.500 sec      :    47.60 %
  
  
  ***************************
  Subcatchment Runoff Summary
  ***************************
  
  ------------------------------------------------------------------------------------------------------------------------------
                            Total      Total      Total      Total     Imperv       Perv      Total       Total     Peak  Runoff
                           Precip      Runon       Evap      Infil     Runoff     Runoff     Runoff      Runoff   Runoff   Coeff
  Subcatchment                 mm         mm         mm         mm         mm         mm         mm    10^6 ltr      LPS
  ------------------------------------------------------------------------------------------------------------------------------
  sub60                     25.89       0.00       0.00       1.57      21.57       1.54      23.11        0.30   221.09   0.893
  sub61                     25.89       0.00       0.00       2.28      20.35       2.12      22.47        0.41   303.14   0.868
  sub62                     25.89       0.00       0.00       1.04      22.52       1.03      23.55        0.65   423.33   0.910
  sub63                     25.89       0.00       0.00       4.24      17.40       3.27      20.68        0.47   323.50   0.799
  sub64                     25.89       0.00       0.00       2.14      20.79       1.74      22.54        0.54   332.93   0.871
  sub65                     25.89       0.00       0.00       1.85      21.26       1.51      22.78        0.63   370.19   0.880
  sub66                     25.89       0.00       0.00       5.06      17.30       2.45      19.75        0.92   451.81   0.763
  sub67                     25.89       0.00       0.00       1.00      22.56       1.07      23.64        0.44   343.70   0.913
  sub68                     25.89       0.00       0.00       1.89      21.07       1.73      22.80        0.63   431.10   0.881
  sub69                     25.89       0.00       0.00       1.64      21.89       2.25      24.14        0.89   500.36   0.932
  sub70                     25.89       0.00       0.00       5.24      16.92       3.56      20.48        0.59   257.20   0.791
  sub71                     25.89       0.00       0.00       1.08      22.48       1.00      23.48        0.61   364.68   0.907
  sub72                     25.89       0.00       0.00       0.96      22.67       0.85      23.52        0.32   171.48   0.909
  
  
  ******************
  Node Depth Summary
  ******************
  
  ---------------------------------------------------------------------------------
                                 Average  Maximum  Maximum  Time of Max    Reported
                                   Depth    Depth      HGL   Occurrence   Max Depth
  Node                 Type       Meters   Meters   Meters  days hr:min      Meters
  ---------------------------------------------------------------------------------
  WS02003060           JUNCTION     0.17     0.35     5.28     0  03:01        0.35
  WS02003066           JUNCTION     0.15     0.28     5.83     0  03:01        0.28
  WS02003067           JUNCTION     0.43     0.66     5.98     0  03:00        0.66
  WS02003069           JUNCTION     0.19     0.39     4.97     0  03:02        0.39
  WS02003072           JUNCTION     0.24     0.46     4.83     0  03:03        0.46
  WS02003073           JUNCTION     0.13     0.27     4.34     0  03:04        0.27
  WS02004401           JUNCTION     0.51     0.78     6.78     0  02:57        0.78
  WS02004402           JUNCTION     0.54     0.81     6.77     0  02:58        0.81
  WS02004403           JUNCTION     0.57     0.83     6.76     0  02:46        0.83
  WS02004404           JUNCTION     0.65     0.91     6.76     0  02:47        0.91
  WS02004405           JUNCTION     0.65     0.91     6.76     0  02:47        0.91
  WS02004406           JUNCTION     0.66     0.92     6.75     0  02:47        0.91
  WS02004407           JUNCTION     0.13     0.27     6.59     0  02:47        0.27
  WS02004409           JUNCTION     0.29     0.60     6.37     0  02:59        0.60
  WS02004410           JUNCTION     0.32     0.62     6.34     0  03:02        0.62
  WS02004411           JUNCTION     0.34     0.63     6.31     0  03:01        0.63
  WS02004412           JUNCTION     0.37     0.64     6.28     0  03:01        0.64
  WS02004413           JUNCTION     0.54     0.81     6.28     0  03:00        0.80
  WS02006109           JUNCTION     0.55     1.02     7.64     0  02:44        0.97
  WS02006110           JUNCTION     0.56     0.97     7.56     0  02:44        0.91
  WS02006111           JUNCTION     0.14     0.90     7.60     0  00:00        0.40
  WS02006112           JUNCTION     0.65     2.68     8.56     0  00:00        1.14
  WS02006113           JUNCTION     0.21     1.40     8.29     0  00:00        0.44
  WS02006115           JUNCTION     0.38     1.65     7.79     0  00:00        0.86
  WS02006116           JUNCTION     0.47     1.06     7.10     0  00:00        0.76
  WS02006228           JUNCTION     0.53     1.05     7.70     0  02:44        1.01
  WS02006229           JUNCTION     0.49     1.05     7.75     0  02:44        1.00
  WS02006230           JUNCTION     0.47     1.17     7.91     0  02:44        1.12
  WS02006231           JUNCTION     0.30     0.97     8.10     0  02:56        0.86
  WS02006232           JUNCTION     0.41     1.62     8.66     0  00:15        0.99
  WS02006234           JUNCTION     0.32     1.69     8.84     0  02:55        0.95
  WS02006235           JUNCTION     0.35     1.73     8.90     0  02:55        1.02
  WS02006238           JUNCTION     0.37     1.77     8.91     0  02:55        1.05
  WS02006239           JUNCTION     0.32     1.72     8.93     0  02:55        1.04
  WS02006240           JUNCTION     0.29     1.82     9.11     0  00:15        1.03
  WS02006242           JUNCTION     0.35     1.55     8.82     0  02:55        1.14
  WS02006243           JUNCTION     0.26     1.48     8.90     0  02:43        1.09
  WS02006245           JUNCTION     0.26     1.20     8.69     0  02:55        1.11
  WS02006247           JUNCTION     0.28     1.17     8.67     0  02:55        1.15
  WS02006248           JUNCTION     0.24     1.10     8.69     0  02:44        1.10
  WS02006249           JUNCTION     0.27     1.09     8.69     0  02:43        1.09
  WS02006251           JUNCTION     0.26     1.46     9.13     0  02:44        1.46
  WS02006252           JUNCTION     0.23     1.50     9.74     0  02:41        1.02
  WS02006256           JUNCTION     0.79     2.35     9.28     0  00:09        2.35
  WSF200               JUNCTION     0.12     0.26     5.50     0  03:00        0.26
  YS02001580           JUNCTION     0.06     1.05     9.59     0  02:25        0.61
  YS02001583           JUNCTION     0.09     1.14     9.64     0  02:25        0.66
  YS02001586           JUNCTION     0.16     1.13     9.30     0  02:25        1.13
  YS02001590           JUNCTION     0.25     1.40     9.26     0  02:25        1.25
  YS02001593           JUNCTION     0.19     1.46     9.32     0  02:25        1.46
  YS02001596           JUNCTION     0.26     1.80     9.22     0  02:25        1.80
  YS02001600           JUNCTION     0.34     1.87     9.00     0  02:25        1.87
  YS02001601           JUNCTION     0.52     2.06     8.90     0  02:24        2.06
  YS02001602           JUNCTION     0.44     1.87     8.77     0  02:24        1.84
  YS02001605           JUNCTION     0.40     1.78     8.68     0  02:24        1.78
  YS02001607           JUNCTION     0.38     1.66     8.51     0  02:25        1.40
  YS02001610           JUNCTION     0.41     1.68     8.48     0  02:24        1.44
  YS02001613           JUNCTION     0.38     1.70     8.54     0  02:25        1.70
  YS02001616           JUNCTION     0.31     1.61     8.52     0  02:25        1.61
  YS02001619           JUNCTION     0.29     1.61     8.54     0  02:25        1.61
  YS02001622           JUNCTION     0.28     1.62     8.52     0  02:25        1.62
  YS02001625           JUNCTION     0.52     1.78     8.38     0  02:25        1.78
  YS02001629           JUNCTION     0.39     1.85     8.40     0  02:24        1.85
  YS02001633           JUNCTION     0.46     2.08     8.53     0  02:25        2.08
  YS02001641           JUNCTION     0.43     1.62     8.06     0  02:25        1.24
  YS02001644           JUNCTION     0.43     1.31     7.74     0  02:25        1.17
  YS02001647           JUNCTION     0.21     0.83     7.44     0  02:27        0.81
  YS02001649           JUNCTION     0.24     0.95     7.34     0  02:26        0.93
  YS02001652           JUNCTION     0.13     0.74     7.34     0  02:26        0.71
  YS02001655           JUNCTION     0.08     0.46     7.31     0  02:26        0.45
  YS02001658           JUNCTION     0.06     0.26     7.40     0  02:26        0.25
  YS02001661           JUNCTION     0.11     0.31     7.72     0  02:25        0.31
  YS02001664           JUNCTION     0.05     0.22     8.14     0  02:25        0.21
  YS02001745           JUNCTION     0.04     0.20     7.71     0  02:25        0.20
  YS02001748           JUNCTION     0.05     0.23     7.30     0  02:25        0.22
  YS02001751           JUNCTION     0.05     0.29     7.17     0  02:28        0.29
  YS02001754           JUNCTION     0.09     0.61     7.22     0  02:28        0.52
  YS02001757           JUNCTION     0.24     0.93     7.19     0  02:28        0.92
  YS02001759           JUNCTION     0.18     0.84     7.20     0  02:28        0.83
  YS02001762           JUNCTION     0.17     0.80     7.20     0  02:29        0.80
  YS02001765           JUNCTION     0.15     0.77     7.22     0  02:28        0.75
  YS02001767           JUNCTION     0.16     0.74     7.23     0  02:28        0.73
  YS02001770           JUNCTION     0.17     0.75     7.25     0  02:28        0.75
  YS02001774           JUNCTION     0.23     0.83     7.25     0  02:29        0.82
  YS02001779           JUNCTION     0.07     0.57     7.26     0  02:28        0.56
  YS02001783           JUNCTION     0.23     1.01     7.15     0  02:29        1.00
  YS02001784           JUNCTION     0.25     0.93     7.00     0  02:29        0.92
  YS02001786           JUNCTION     0.21     0.76     6.79     0  02:29        0.76
  YS02001788           JUNCTION     0.15     0.57     6.55     0  02:30        0.57
  YS02001790           JUNCTION     0.19     0.67     6.31     0  02:30        0.66
  YS02001791           JUNCTION     0.12     0.40     5.87     0  02:30        0.39
  YS02001793           JUNCTION     0.06     0.20     5.03     0  02:30        0.19
  YS02001882           JUNCTION     0.27     1.44     8.15     0  02:26        1.24
  YS02001884           JUNCTION     0.35     1.49     8.11     0  02:26        1.32
  YS02001887           JUNCTION     0.42     1.49     8.03     0  02:26        1.37
  YS02001890           JUNCTION     0.45     1.44     7.95     0  02:26        1.36
  YS02001895           JUNCTION     0.24     1.16     7.91     0  02:28        1.10
  YS02001898           JUNCTION     0.25     1.17     7.91     0  02:28        1.11
  YS02001901           JUNCTION     0.35     1.29     7.90     0  02:28        1.24
  YS02001904           JUNCTION     0.33     1.26     7.89     0  02:29        1.21
  YS02001907           JUNCTION     0.63     1.59     7.88     0  02:27        1.56
  YS02001910           JUNCTION     0.44     1.42     7.92     0  02:27        1.36
  YS02001915           JUNCTION     0.27     1.26     7.98     0  02:27        1.17
  YS02001918           JUNCTION     0.13     0.85     7.91     0  02:29        0.84
  YS02001920           JUNCTION     0.21     0.91     7.92     0  02:29        0.90
  YS02001923           JUNCTION     0.08     0.66     7.92     0  02:29        0.65
  YS02001926           JUNCTION     0.12     0.48     7.92     0  02:30        0.48
  YS02001929           JUNCTION     0.06     0.20     7.89     0  02:30        0.19
  YS02006553           JUNCTION     0.63     1.58     7.86     0  02:29        1.54
  YS02006556           JUNCTION     0.60     1.52     7.83     0  02:29        1.49
  YS02006558           JUNCTION     0.65     1.55     7.81     0  02:29        1.52
  YS02006561           JUNCTION     0.13     0.59     7.25     0  02:29        0.57
  YS02163301           JUNCTION     0.41     2.03     8.55     0  02:25        2.03
  YS02163601           JUNCTION     0.49     2.08     8.48     0  02:25        2.08
  YS02164001           JUNCTION     0.42     2.10     8.56     0  02:25        2.10
  CC-1                 OUTFALL      0.00     0.00     0.00     0  00:00        0.00
  CC-2                 OUTFALL      0.00     0.00     0.00     0  00:00        0.00
  JK-1                 OUTFALL      0.00     0.00     0.00     0  00:00        0.00
  JK-2                 OUTFALL      0.00     0.00     0.00     0  00:00        0.00
  WSC                  OUTFALL      0.13     0.27     0.94     0  03:05        0.27
  CC-storage           STORAGE      0.64     1.02     6.52     0  02:47        1.02
  JK-storage           STORAGE      1.46     3.72     4.52     0  02:25        3.71
  
  
  *******************
  Node Inflow Summary
  *******************
  
  -------------------------------------------------------------------------------------------------
                                  Maximum  Maximum                  Lateral       Total        Flow
                                  Lateral    Total  Time of Max      Inflow      Inflow     Balance
                                   Inflow   Inflow   Occurrence      Volume      Volume       Error
  Node                 Type           LPS      LPS  days hr:min    10^6 ltr    10^6 ltr     Percent
  -------------------------------------------------------------------------------------------------
  WS02003060           JUNCTION     16.53   463.60     0  03:01       0.476         2.6       0.094
  WS02003066           JUNCTION      0.00   445.18     0  03:01           0        2.13       0.065
  WS02003067           JUNCTION      0.00   444.16     0  03:00           0        2.13       0.198
  WS02003069           JUNCTION      0.32   464.07     0  03:01     0.00922        2.61       0.151
  WS02003072           JUNCTION      0.00   462.02     0  03:02           0         2.6       0.268
  WS02003073           JUNCTION      1.82   462.95     0  03:03      0.0524        2.65       0.217
  WS02004401           JUNCTION      0.00  1677.78     0  00:00           0        2.24       0.514
  WS02004402           JUNCTION      0.00  1171.33     0  00:01           0        2.23       0.505
  WS02004403           JUNCTION      0.00   884.75     0  00:01           0        2.22       0.494
  WS02004404           JUNCTION      0.16   832.59     0  00:01     0.00467        2.21       0.422
  WS02004405           JUNCTION      0.04   776.49     0  00:01      0.0011         2.2       0.559
  WS02004406           JUNCTION      0.00   711.76     0  00:02           0        2.19       1.003
  WS02004407           JUNCTION      0.00   467.66     0  02:47           0        2.17       0.052
  WS02004409           JUNCTION      0.00   464.14     0  02:47           0        2.17       0.125
  WS02004410           JUNCTION      0.00   457.35     0  02:47           0        2.16       0.208
  WS02004411           JUNCTION      0.00   453.53     0  02:59           0        2.16       0.270
  WS02004412           JUNCTION      0.00   452.54     0  03:00           0        2.15       0.352
  WS02004413           JUNCTION      0.00   449.09     0  03:00           0        2.14       0.643
  WS02006109           JUNCTION      1.23  1308.01     0  00:00      0.0354        2.17       0.358
  WS02006110           JUNCTION      0.00   544.22     0  02:45           0        2.14      -1.657
  WS02006111           JUNCTION      0.00  1176.04     0  00:00           0        2.17      -1.742
  WS02006112           JUNCTION      0.00  2307.30     0  00:00           0        2.21      -0.026
  WS02006113           JUNCTION      0.00   551.39     0  02:44           0        2.13      -2.289
  WS02006115           JUNCTION      0.00   899.27     0  00:00           0        2.18      -1.456
  WS02006116           JUNCTION      0.00  1098.16     0  00:01           0        2.22      -1.037
  WS02006228           JUNCTION      0.00   541.65     0  02:45           0        2.11       0.137
  WS02006229           JUNCTION      0.00   541.30     0  02:45           0         2.1       0.463
  WS02006230           JUNCTION     10.28   540.62     0  02:44       0.296        2.09       0.131
  WS02006231           JUNCTION      0.00   539.33     0  02:55           0        1.78      -0.026
  WS02006232           JUNCTION      0.00   538.43     0  02:55           0        1.79       0.519
  WS02006234           JUNCTION      0.00   538.02     0  02:55           0        1.77      -0.956
  WS02006235           JUNCTION      0.00   538.91     0  02:55           0        1.91       0.782
  WS02006238           JUNCTION      0.00   419.62     0  02:45           0        1.56      -0.482
  WS02006239           JUNCTION      0.00   419.86     0  02:45           0        1.46      -0.102
  WS02006240           JUNCTION      0.00   418.21     0  02:45           0        1.42      -0.027
  WS02006242           JUNCTION      0.00   418.34     0  02:45           0        1.42       0.088
  WS02006243           JUNCTION      0.00   418.41     0  02:45           0        1.41      -0.362
  WS02006245           JUNCTION      0.00   417.39     0  02:45           0        1.43       0.991
  WS02006247           JUNCTION      0.00   417.05     0  02:45           0        1.42      -0.029
  WS02006248           JUNCTION      0.00   417.63     0  00:05           0        1.42      -0.134
  WS02006249           JUNCTION      0.00   824.67     0  00:05           0        1.45       1.547
  WS02006251           JUNCTION      0.08   460.09     0  00:05     0.00222        1.43      -1.234
  WS02006252           JUNCTION      0.00   400.00     0  00:05           0        1.41      -1.242
  WS02006256           JUNCTION      0.00   300.00     0  00:15           0       0.452      -7.578
  WSF200               JUNCTION      0.00   444.96     0  03:01           0        2.13       0.025
  YS02001580           JUNCTION      0.00   123.02     0  02:24           0      0.0044       0.810
  YS02001583           JUNCTION      0.00   205.60     0  02:25           0      0.0152      -6.619
  YS02001586           JUNCTION    257.20   258.93     0  02:25       0.591       0.603       0.241
  YS02001590           JUNCTION      0.00   258.99     0  02:25           0       0.589      -0.064
  YS02001593           JUNCTION      0.00   259.01     0  02:25           0       0.589      -0.011
  YS02001596           JUNCTION      0.00   258.99     0  02:25           0       0.589      -0.021
  YS02001600           JUNCTION      0.00   259.09     0  02:25           0       0.589       0.032
  YS02001601           JUNCTION    500.36   758.39     0  02:25       0.893        1.48       0.066
  YS02001602           JUNCTION      0.00   540.87     0  02:24           0        1.38       0.039
  YS02001605           JUNCTION      0.00   541.37     0  02:24           0        1.37       0.043
  YS02001607           JUNCTION      0.00   541.90     0  02:24           0        1.37       0.127
  YS02001610           JUNCTION      0.00   535.12     0  02:24           0        1.37       0.159
  YS02001613           JUNCTION      0.00   540.70     0  02:24           0        1.37       0.098
  YS02001616           JUNCTION      0.00   545.87     0  02:24           0        1.37       0.012
  YS02001619           JUNCTION    451.81   940.35     0  02:24        0.92        2.29      -0.007
  YS02001622           JUNCTION      0.00   944.97     0  02:24           0        2.29      -0.022
  YS02001625           JUNCTION      0.00   950.21     0  02:24           0        2.29       0.388
  YS02001629           JUNCTION      0.00   952.54     0  02:24           0        2.28       0.004
  YS02001633           JUNCTION    370.39  1266.06     0  02:25       0.632        2.91       0.117
  YS02001641           JUNCTION      0.00  1266.87     0  02:25           0        2.91       0.093
  YS02001644           JUNCTION    332.97  1598.78     0  02:25       0.542        3.45       0.088
  YS02001647           JUNCTION      0.00  1599.06     0  02:25           0        3.44       0.011
  YS02001649           JUNCTION      0.00  1956.56     0  02:26           0        3.91       0.014
  YS02001652           JUNCTION      0.00   384.09     0  02:26           0       0.472      -0.209
  YS02001655           JUNCTION      0.15   333.50     0  02:26     0.00443       0.473       0.165
  YS02001658           JUNCTION      0.00   324.53     0  02:25           0       0.469      -0.013
  YS02001661           JUNCTION      0.00   323.18     0  02:25           0       0.469       0.074
  YS02001664           JUNCTION    323.50   323.50     0  02:25       0.469       0.469      -0.009
  YS02001745           JUNCTION    221.09   221.09     0  02:25       0.303       0.303      -0.004
  YS02001748           JUNCTION      0.04   221.30     0  02:25      0.0013       0.305      -0.003
  YS02001751           JUNCTION      0.01   221.99     0  02:25    0.000317       0.305       0.278
  YS02001754           JUNCTION      0.26   237.38     0  02:28     0.00749       0.312      -0.340
  YS02001757           JUNCTION      0.00  2708.70     0  02:28           0         5.3       0.078
  YS02001759           JUNCTION    303.18   634.57     0  02:29       0.413        1.08      -0.005
  YS02001762           JUNCTION      0.00   425.84     0  02:29           0       0.663       0.022
  YS02001765           JUNCTION      0.00   395.81     0  02:29           0       0.663       0.019
  YS02001767           JUNCTION      0.54   398.18     0  02:29      0.0154       0.663       0.033
  YS02001770           JUNCTION    423.48   423.48     0  02:26       0.649       0.679       0.007
  YS02001774           JUNCTION      0.00    94.57     0  02:27           0      0.0439       2.716
  YS02001779           JUNCTION      0.01    49.56     0  02:31    0.000144      0.0128       0.073
  YS02001783           JUNCTION      0.00  1050.43     0  02:29           0        2.06       0.006
  YS02001784           JUNCTION      1.06  1051.58     0  02:29      0.0305        2.09       0.020
  YS02001786           JUNCTION      0.06  1051.48     0  02:29     0.00162        2.09       0.032
  YS02001788           JUNCTION      0.07  1046.35     0  02:29     0.00204        2.09       0.014
  YS02001790           JUNCTION      0.15  1048.88     0  02:29     0.00446         2.1       0.048
  YS02001791           JUNCTION      0.00  1136.90     0  02:30           0        2.09      -0.020
  YS02001793           JUNCTION      0.00  1088.50     0  02:30           0        2.09       0.009
  YS02001882           JUNCTION      0.00    41.57     0  02:26           0      0.0125       3.429
  YS02001884           JUNCTION      0.00    75.31     0  02:24           0      0.0482       4.779
  YS02001887           JUNCTION    344.15   344.15     0  02:25       0.452       0.486       0.867
  YS02001890           JUNCTION      0.00   336.71     0  02:26           0       0.445       1.099
  YS02001895           JUNCTION      0.00   338.16     0  02:26           0        0.44       0.262
  YS02001898           JUNCTION      0.00   331.13     0  02:27           0       0.439       0.062
  YS02001901           JUNCTION      0.00   317.74     0  02:27           0       0.442       0.658
  YS02001904           JUNCTION      0.00   315.73     0  02:27           0       0.446       0.568
  YS02001907           JUNCTION      0.00   724.27     0  02:31           0        1.46       1.218
  YS02001910           JUNCTION      0.00   541.84     0  02:31           0        1.02       0.673
  YS02001915           JUNCTION    364.70   537.88     0  02:31       0.614        1.02       0.115
  YS02001918           JUNCTION      0.00   241.96     0  02:32           0       0.411       0.080
  YS02001920           JUNCTION      2.87   216.17     0  02:31      0.0827       0.408       0.268
  YS02001923           JUNCTION      0.04   174.69     0  02:26     0.00109       0.325      -0.081
  YS02001926           JUNCTION      0.05   171.38     0  02:26      0.0015       0.325       0.201
  YS02001929           JUNCTION    171.48   171.48     0  02:26       0.323       0.323      -0.005
  YS02006553           JUNCTION      0.00   724.37     0  02:31           0        1.45       0.795
  YS02006556           JUNCTION      0.00   724.46     0  02:31           0        1.45       0.547
  YS02006558           JUNCTION    431.98  1050.65     0  02:29       0.652        2.08       0.156
  YS02006561           JUNCTION      0.00  1050.94     0  02:29           0        2.06       0.007
  YS02163301           JUNCTION      0.00   898.59     0  02:26           0        2.28       0.068
  YS02163601           JUNCTION      0.11  1266.31     0  02:25     0.00317        2.91       0.167
  YS02164001           JUNCTION      0.00  1266.66     0  02:25           0        2.91       0.072
  CC-1                 OUTFALL       0.00   683.00     0  02:00           0        1.33       0.000
  CC-2                 OUTFALL       0.00   683.00     0  00:15           0        3.41       0.000
  JK-1                 OUTFALL       0.00  1000.00     0  00:05           0       0.649       0.000
  JK-2                 OUTFALL       0.00  1000.00     0  00:05           0        1.13       0.000
  WSC                  OUTFALL       0.00   462.10     0  03:05           0        2.64       0.000
  CC-storage           STORAGE       0.00  2659.19     0  02:29           0        7.53      -0.296
  JK-storage           STORAGE       0.00  1082.12     0  02:30           0        2.25      -0.764
  
  
  **********************
  Node Surcharge Summary
  **********************
  
  Surcharging occurs when water rises above the top of the highest conduit.
  ---------------------------------------------------------------------
                                               Max. Height   Min. Depth
                                   Hours       Above Crown    Below Rim
  Node                 Type      Surcharged         Meters       Meters
  ---------------------------------------------------------------------
  WS02006109           JUNCTION        0.30          0.198        1.622
  WS02006110           JUNCTION        0.01          0.065        1.785
  WS02006111           JUNCTION        0.01          0.087        1.783
  WS02006112           JUNCTION        0.02          1.680        0.000
  WS02006113           JUNCTION        0.01          0.600        1.330
  WS02006115           JUNCTION        0.01          0.642        1.608
  WS02006116           JUNCTION        0.01          0.000        2.290
  WS02006228           JUNCTION        0.29          0.217        1.983
  WS02006229           JUNCTION        0.31          0.252        2.198
  WS02006230           JUNCTION        0.01          0.087        1.483
  WS02006231           JUNCTION        0.02          0.264        1.266
  WS02006232           JUNCTION        0.35          0.919        0.561
  WS02006234           JUNCTION        0.14          0.968        0.272
  WS02006235           JUNCTION        0.31          1.023        0.267
  WS02006238           JUNCTION        0.32          1.050        0.380
  WS02006239           JUNCTION        0.27          0.983        0.307
  WS02006240           JUNCTION        0.27          1.112        0.278
  WS02006242           JUNCTION        0.31          0.820        0.000
  WS02006243           JUNCTION        0.22          0.770        0.000
  WS02006245           JUNCTION        0.21          0.494        0.356
  WS02006247           JUNCTION        0.21          0.457        0.303
  WS02006248           JUNCTION        0.20          0.380        0.000
  WS02006249           JUNCTION        0.20          0.390        0.000
  WS02006251           JUNCTION        0.03          0.425        0.755
  WS02006252           JUNCTION        0.56          1.100        0.000
  WS02006256           JUNCTION        6.22          2.050        0.000
  YS02001580           JUNCTION        0.06          0.450        0.000
  YS02001583           JUNCTION        0.07          0.500        0.000
  YS02001586           JUNCTION        0.22          0.510        0.000
  YS02001590           JUNCTION        0.27          0.750        0.000
  YS02001593           JUNCTION        0.28          0.840        0.000
  YS02001596           JUNCTION        0.36          1.070        0.000
  YS02001600           JUNCTION        0.45          1.190        0.000
  YS02001601           JUNCTION        0.73          1.440        0.000
  YS02001602           JUNCTION        0.64          1.270        0.000
  YS02001605           JUNCTION        0.59          1.180        0.000
  YS02001607           JUNCTION        0.23          0.658        0.022
  YS02001610           JUNCTION        0.24          0.680        0.000
  YS02001613           JUNCTION        0.22          0.700        0.000
  YS02001616           JUNCTION        0.19          0.610        0.000
  YS02001619           JUNCTION        0.17          0.610        0.000
  YS02001622           JUNCTION        0.17          0.620        0.000
  YS02001625           JUNCTION        0.31          0.780        0.000
  YS02001629           JUNCTION        0.10          0.470        0.000
  YS02001633           JUNCTION        0.32          1.060        0.000
  YS02001641           JUNCTION        0.24          0.619        0.481
  YS02001644           JUNCTION        0.20          0.313        0.607
  YS02001783           JUNCTION        0.17          0.209        1.391
  YS02001784           JUNCTION        0.14          0.128        1.362
  YS02001882           JUNCTION        0.10          0.436        0.394
  YS02001884           JUNCTION        0.12          0.429        0.441
  YS02001887           JUNCTION        0.16          0.443        0.507
  YS02001890           JUNCTION        0.17          0.394        0.366
  YS02001895           JUNCTION        0.09          0.161        0.589
  YS02001898           JUNCTION        0.08          0.143        0.597
  YS02001901           JUNCTION        0.14          0.286        0.584
  YS02001904           JUNCTION        0.14          0.256        0.594
  YS02001907           JUNCTION        0.33          0.583        0.367
  YS02001910           JUNCTION        0.19          0.415        0.685
  YS02001915           JUNCTION        0.11          0.259        0.741
  YS02006553           JUNCTION        0.34          0.575        0.615
  YS02006556           JUNCTION        0.26          0.479        0.871
  YS02006558           JUNCTION        0.25          0.446        0.954
  YS02163301           JUNCTION        0.31          1.030        0.000
  YS02163601           JUNCTION        0.34          1.080        0.000
  YS02164001           JUNCTION        0.26          1.100        0.000
  
  
  *********************
  Node Flooding Summary
  *********************
  
  Flooding refers to all water that overflows a node, whether it ponds or not.
  --------------------------------------------------------------------------
                                                             Total   Maximum
                                 Maximum   Time of Max       Flood    Ponded
                        Hours       Rate    Occurrence      Volume     Depth
  Node                 Flooded       LPS   days hr:min    10^6 ltr    Meters
  --------------------------------------------------------------------------
  WS02006112              0.01   1547.89      0  00:00       0.047     0.000
  WS02006242              0.01      0.97      0  02:55       0.000     0.000
  WS02006243              0.01     65.51      0  02:43       0.000     0.000
  WS02006248              0.01      7.41      0  02:44       0.000     0.000
  WS02006249              0.02    119.26      0  02:44       0.005     0.000
  WS02006252              0.01      0.91      0  02:41       0.000     0.000
  WS02006256              0.41    290.34      0  02:55       0.112     0.000
  YS02001580              0.01    101.37      0  02:25       0.000     0.000
  YS02001583              0.01    159.90      0  02:25       0.000     0.000
  YS02001586              0.01     85.36      0  02:25       0.001     0.000
  YS02001590              0.01      3.43      0  02:25       0.000     0.000
  YS02001593              0.01      0.59      0  02:25       0.000     0.000
  YS02001596              0.01      0.45      0  02:25       0.000     0.000
  YS02001600              0.01      1.02      0  02:25       0.000     0.000
  YS02001601              0.17    323.21      0  02:25       0.106     0.000
  YS02001602              0.01     28.02      0  02:25       0.000     0.000
  YS02001605              0.01     15.71      0  02:25       0.000     0.000
  YS02001610              0.01     19.36      0  02:24       0.000     0.000
  YS02001613              0.01      1.55      0  02:25       0.000     0.000
  YS02001616              0.01      5.78      0  02:25       0.000     0.000
  YS02001619              0.01      9.00      0  02:25       0.000     0.000
  YS02001622              0.01      3.80      0  02:25       0.000     0.000
  YS02001625              0.01     42.45      0  02:25       0.000     0.000
  YS02001629              0.01    216.70      0  02:24       0.001     0.000
  YS02001633              0.01      7.97      0  02:25       0.000     0.000
  YS02163301              0.01      2.65      0  02:25       0.000     0.000
  YS02163601              0.01     11.51      0  02:25       0.000     0.000
  YS02164001              0.01     36.21      0  02:25       0.000     0.000
  
  
  **********************
  Storage Volume Summary
  **********************
  
  ------------------------------------------------------------------------------------------------
                         Average    Avg   Evap  Exfil     Maximum    Max    Time of Max    Maximum
                          Volume   Pcnt   Pcnt   Pcnt      Volume   Pcnt     Occurrence    Outflow
  Storage Unit           1000 m³   Full   Loss   Loss     1000 m³   Full    days hr:min        LPS
  ------------------------------------------------------------------------------------------------
  CC-storage               1.779   27.8    0.0    0.0       2.855   44.5       0  02:47    1766.00
  JK-storage               0.073   25.1    0.0    0.0       0.187   64.1       0  02:25    2000.00
  
  
  ***********************
  Outfall Loading Summary
  ***********************
  
  -----------------------------------------------------------
                         Flow       Avg       Max       Total
                         Freq      Flow      Flow      Volume
  Outfall Node           Pcnt       LPS       LPS    10^6 ltr
  -----------------------------------------------------------
  CC-1                  16.72    683.00    683.00       1.331
  CC-2                  40.48    683.00    683.00       3.411
  JK-1                   6.31   1000.00   1000.00       0.649
  JK-2                  10.97   1000.00   1000.00       1.135
  WSC                   99.99    136.73    462.10       2.643
  -----------------------------------------------------------
  System                34.89   3502.73   3737.88       9.169
  
  
  ********************
  Link Flow Summary
  ********************
  
  -----------------------------------------------------------------------------
                                 Maximum  Time of Max   Maximum    Max/    Max/
                                  |Flow|   Occurrence   |Veloc|    Full    Full
  Link                 Type          LPS  days hr:min     m/sec    Flow   Depth
  -----------------------------------------------------------------------------
  1                    CONDUIT    462.10     0  03:05      2.68    0.16    0.27
  WS02003060WS02003069 CONDUIT    463.75     0  03:01      1.58    0.18    0.31
  WS02003066WSF200     CONDUIT    444.96     0  03:01      2.72    0.08    0.20
  WS02003067WS02003066 CONDUIT    445.18     0  03:01      1.09    0.14    0.39
  WS02003069WS02003072 CONDUIT    462.02     0  03:02      1.30    0.22    0.35
  WS02003072WS02003073 CONDUIT    461.13     0  03:03      1.35    1.00    0.34
  WS02004401WS02004402 CONDUIT   1171.33     0  00:01      2.51    1.41    0.80
  WS02004402WS02004403 CONDUIT    884.75     0  00:01      2.16    1.27    0.82
  WS02004403WS02004404 CONDUIT    832.43     0  00:01      1.96    0.60    0.87
  WS02004404WS02004405 CONDUIT    776.45     0  00:01      2.26    7.61    0.91
  WS02004405WS02004406 CONDUIT    711.76     0  00:02      2.15    1.40    0.91
  WS02004406WS02004407 CONDUIT    467.66     0  02:47      0.96    0.21    0.59
  WS02004407WS02004409 CONDUIT    464.14     0  02:47      1.95    0.16    0.44
  WS02004409WS02004410 CONDUIT    457.35     0  02:47      1.31    0.59    0.61
  WS02004410WS02004411 CONDUIT    453.53     0  02:59      1.19    0.62    0.62
  WS02004411WS02004412 CONDUIT    452.54     0  03:00      1.08    0.64    0.64
  WS02004412WS02004413 CONDUIT    449.09     0  03:00      1.10    0.30    0.72
  WS02004413WS02003067 CONDUIT    444.16     0  03:00      1.00    0.19    0.55
  WS02006109WS02006110 CONDUIT   1306.78     0  00:00      3.14    2.51    1.00
  WS02006110WS02006113 CONDUIT    551.39     0  02:44      1.33    0.50    1.00
  WS02006111WS02006112 CONDUIT   2307.30     0  00:00      9.18    1.10    0.91
  WS02006112WS02006115 CONDUIT    899.27     0  00:00      1.16    0.53    1.00
  WS02006113WS02006111 CONDUIT   1176.04     0  00:00      2.46    1.41    1.00
  WS02006115WS02006116 CONDUIT   1098.16     0  00:01      1.72    1.41    1.00
  WS02006116WS02004401 CONDUIT   1677.78     0  00:00      2.92    2.31    0.77
  WS02006228WS02006109 CONDUIT    542.09     0  02:45      1.40    2.37    1.00
  WS02006229WS02006228 CONDUIT    541.65     0  02:45      1.24    1.79    1.00
  WS02006230WS02006229 CONDUIT    541.30     0  02:45      1.41   12.05    1.00
  WS02006231WS02006230 CONDUIT    530.34     0  02:44      1.44    8.04    1.00
  WS02006232WS02006231 CONDUIT    539.33     0  02:55      1.43    1.13    1.00
  WS02006234WS02006232 CONDUIT    538.43     0  02:55      1.40    1.09    1.00
  WS02006235WS02006234 CONDUIT    538.02     0  02:55      1.40    5.68    1.00
  WS02006238WS02006235 CONDUIT    420.10     0  02:45      1.67    0.94    1.00
  WS02006239WS02006238 CONDUIT    419.62     0  02:45      1.27    1.34    1.00
  WS02006240WS02006239 CONDUIT    419.86     0  02:45      1.33    1.32    1.00
  WS02006242WS02006240 CONDUIT    418.21     0  02:45      1.17    1.66    1.00
  WS02006243WS02006242 CONDUIT    418.34     0  02:45      1.45    0.89    1.00
  WS02006245WS02006243 CONDUIT    418.41     0  02:45      1.46    1.24    1.00
  WS02006247WS02006245 CONDUIT    417.39     0  02:45      1.42    3.31    1.00
  WS02006248WS02006247 CONDUIT    417.05     0  02:45      1.53    0.91    1.00
  WS02006249WS02006248 CONDUIT    417.63     0  00:05      1.54    2.29    1.00
  WS02006251WS02006249 CONDUIT    824.67     0  00:05      2.86    2.38    1.00
  WS02006252WS02006251 CONDUIT    460.01     0  00:05     17.94    1.69    1.00
  WS02006256WS02006235 CONDUIT    288.83     0  03:45      4.21    3.06    1.00
  WSF200WS02003060     CONDUIT    447.07     0  03:01      1.97    0.10    0.25
  YS02001580YS02001583 CONDUIT    123.02     0  02:24      0.78    0.48    1.00
  YS02001583YS02001586 CONDUIT    184.07     0  02:25      0.75    0.28    1.00
  YS02001586YS02001590 CONDUIT    258.99     0  02:25      1.27    0.45    1.00
  YS02001590YS02001593 CONDUIT    259.01     0  02:25      1.02    1.63    1.00
  YS02001593YS02001596 CONDUIT    258.99     0  02:25      1.67    0.41    1.00
  YS02001596YS02001600 CONDUIT    259.09     0  02:25      1.17    0.50    1.00
  YS02001600YS02001601 CONDUIT    259.05     0  02:25      0.92    0.45    1.00
  YS02001601YS02001602 CONDUIT    540.87     0  02:24      1.91    1.95    1.00
  YS02001602YS02001605 CONDUIT    541.37     0  02:24      1.91   11.46    1.00
  YS02001605YS02001607 CONDUIT    541.90     0  02:24      1.92    2.97    1.00
  YS02001607YS02001610 CONDUIT    535.12     0  02:24      0.68    0.51    1.00
  YS02001610YS02001613 CONDUIT    540.70     0  02:24      0.69    0.62    1.00
  YS02001613YS02001616 CONDUIT    545.87     0  02:24      0.70    0.47    1.00
  YS02001616YS02001619 CONDUIT    523.20     0  02:24      0.70    0.91    1.00
  YS02001619YS02001622 CONDUIT    944.97     0  02:24      1.22    1.39    1.00
  YS02001622YS02001625 CONDUIT    950.21     0  02:24      1.21    0.51    1.00
  YS02001625YS02001629 CONDUIT    952.54     0  02:24      1.21    0.45    1.00
  YS02001629YS02163301 CONDUIT    898.59     0  02:26      1.14    1.11    1.00
  YS02001633YS02163601 CONDUIT   1266.20     0  02:25      1.61    1.33    1.00
  YS02001641YS02001644 CONDUIT   1266.88     0  02:25      1.61    4.10    1.00
  YS02001644YS02001647 CONDUIT   1599.06     0  02:25      2.17    0.94    0.92
  YS02001647YS02001649 CONDUIT   1619.42     0  02:27      2.35    0.86    0.87
  YS02001649YS02001757 CONDUIT   1923.40     0  02:26      2.57    1.17    0.93
  YS02001652YS02001649 CONDUIT    389.24     0  02:26      0.68    0.19    0.84
  YS02001655YS02001652 CONDUIT    384.09     0  02:26      1.35    0.19    0.57
  YS02001658YS02001655 CONDUIT    333.34     0  02:26      1.97    0.14    0.36
  YS02001661YS02001658 CONDUIT    324.53     0  02:25      2.15    0.13    0.25
  YS02001664YS02001661 CONDUIT    323.18     0  02:25      1.96    0.10    0.26
  YS02001745YS02001748 CONDUIT    221.25     0  02:25      2.02    0.09    0.20
  YS02001748YS02001751 CONDUIT    221.98     0  02:25      1.70    0.11    0.25
  YS02001751YS02001754 CONDUIT    237.12     0  02:28      1.51    0.11    0.41
  YS02001754YS02001757 CONDUIT    306.13     0  02:31      0.52    0.12    0.76
  YS02001757CaochengTiaoxuchi CONDUIT   2659.19     0  02:29      4.01    1.15    0.83
  YS02001759YS02001757 CONDUIT    643.11     0  02:29      0.90    0.46    0.88
  YS02001762YS02001759 CONDUIT    417.33     0  02:29      0.67    0.48    0.82
  YS02001765YS02001762 CONDUIT    425.84     0  02:29      0.71    0.40    0.78
  YS02001767YS02001765 CONDUIT    395.81     0  02:29      0.80    0.50    0.75
  YS02001770YS02001767 CONDUIT    397.65     0  02:29      0.80    1.58    0.74
  YS02001774YS02001770 CONDUIT     94.57     0  02:27      0.16    0.06    0.78
  YS02001779YS02001774 CONDUIT     61.90     0  02:31      0.12    0.03    0.70
  YS02001783YS02001784 CONDUIT   1050.52     0  02:29      2.09    1.45    1.00
  YS02001784YS02001785 CONDUIT   1051.43     0  02:29      2.11    2.45    0.97
  YS02001786YS02001788 CONDUIT   1046.27     0  02:29      2.37    2.02    0.83
  YS02001788YS02001790 CONDUIT   1048.73     0  02:29      2.57    0.77    0.77
  YS02001790YS02001791 CONDUIT   1136.90     0  02:30      3.26    1.24    0.66
  YS02001791YS02001793 CONDUIT   1088.50     0  02:30      6.52    0.47    0.37
  YS02001793JiankangQianchi CONDUIT   1082.12     0  02:30      2.20    0.09    0.60
  YS02001882YS02001884 CONDUIT     41.57     0  02:26      0.05    0.05    1.00
  YS02001884YS02001887 CONDUIT     75.31     0  02:24      0.10    0.10    1.00
  YS02001887YS02001890 CONDUIT    336.71     0  02:26      0.43    0.58    1.00
  YS02001890YS02001895 CONDUIT    338.16     0  02:26      0.43    0.16    1.00
  YS02001895YS02001898 CONDUIT    331.13     0  02:27      0.42    0.57    1.00
  YS02001898YS02001901 CONDUIT    317.74     0  02:27      0.40    0.20    1.00
  YS02001901YS02001904 CONDUIT    315.73     0  02:27      0.40    0.49    1.00
  YS02001904YS02001907 CONDUIT    318.91     0  02:27      0.41    0.11    1.00
  YS02001907YS02006553 CONDUIT    724.37     0  02:31      0.80    0.85    1.00
  YS02001910YS02001907 CONDUIT    541.99     0  02:31      0.69    0.31    1.00
  YS02001915YS02001910 CONDUIT    541.84     0  02:31      0.69    0.27    1.00
  YS02001918YS02001915 CONDUIT    271.91     0  02:32      0.46    0.15    0.92
  YS02001920YS02001918 CONDUIT    241.96     0  02:32      0.64    0.23    0.88
  YS02001923YS02001920 CONDUIT    213.30     0  02:31      0.71    0.10    0.78
  YS02001926YS02001923 CONDUIT    174.65     0  02:26      0.94    0.25    0.46
  YS02001929YS02001926 CONDUIT    171.32     0  02:26      1.04    0.08    0.33
  YS02006553YS02006556 CONDUIT    724.46     0  02:31      0.92    0.62    1.00
  YS02006556YS02006558 CONDUIT    724.83     0  02:31      0.92    0.57    1.00
  YS02006558YS02006561 CONDUIT   1050.94     0  02:29      3.73    2.32    0.99
  YS02006561YS02001783 CONDUIT   1050.43     0  02:29      2.27    0.54    0.87
  YS02163301YS02001633 CONDUIT    898.68     0  02:26      1.14    0.84    1.00
  YS02163601YS02164001 CONDUIT   1266.66     0  02:25      1.61    1.12    1.00
  YS02164001YS02001641 CONDUIT   1266.87     0  02:25      1.61    1.73    1.00
  CC-R1                PUMP       683.00     0  02:00              1.00
  CC-R2                PUMP       683.00     0  00:15              1.00
  CC-S1                PUMP       200.00     0  00:05              1.00
  CC-S2                PUMP       200.00     0  00:05              1.00
  JK-R1                PUMP      1000.00     0  00:05              1.00
  JK-R2                PUMP      1000.00     0  00:05              1.00
  JK-S                 PUMP       300.00     0  00:15              1.00
  
  
  ***************************
  Flow Classification Summary
  ***************************
  
  -------------------------------------------------------------------------------------
                      Adjusted    ---------- Fraction of Time in Flow Class ---------- 
                       /Actual         Up    Down  Sub   Sup   Up    Down  Norm  Inlet 
  Conduit               Length    Dry  Dry   Dry   Crit  Crit  Crit  Crit  Ltd   Ctrl  
  -------------------------------------------------------------------------------------
  1                       1.00   0.00  0.00  0.00  0.00  1.00  0.00  0.00  0.34  0.00
  WS02003060WS02003069    1.00   0.00  0.00  0.00  0.97  0.03  0.00  0.00  0.87  0.00
  WS02003066WSF200        1.00   0.03  0.00  0.00  0.00  0.97  0.00  0.00  0.95  0.00
  WS02003067WS02003066    1.00   0.02  0.01  0.00  0.97  0.00  0.00  0.00  0.00  0.00
  WS02003069WS02003072    1.00   0.00  0.00  0.00  0.99  0.01  0.00  0.00  0.93  0.00
  WS02003072WS02003073    1.00   0.00  0.00  0.00  0.00  0.00  0.00  1.00  0.00  0.00
  WS02004401WS02004402    1.00   0.00  0.00  0.00  1.00  0.00  0.00  0.00  0.00  0.00
  WS02004402WS02004403    1.00   0.00  0.00  0.00  1.00  0.00  0.00  0.00  0.00  0.00
  WS02004403WS02004404    1.00   0.00  0.00  0.00  1.00  0.00  0.00  0.00  0.00  0.00
  WS02004404WS02004405    1.00   0.00  0.00  0.00  1.00  0.00  0.00  0.00  0.00  0.00
  WS02004405WS02004406    1.00   0.00  0.00  0.00  1.00  0.00  0.00  0.00  0.00  0.00
  WS02004406WS02004407    1.00   0.00  0.00  0.00  1.00  0.00  0.00  0.00  0.00  0.00
  WS02004407WS02004409    1.00   0.00  0.00  0.00  0.99  0.01  0.00  0.00  0.99  0.00
  WS02004409WS02004410    1.00   0.00  0.00  0.00  0.99  0.00  0.00  0.00  0.00  0.00
  WS02004410WS02004411    1.00   0.01  0.00  0.00  0.99  0.00  0.00  0.00  0.00  0.00
  WS02004411WS02004412    1.00   0.01  0.00  0.00  0.99  0.00  0.00  0.00  0.00  0.00
  WS02004412WS02004413    1.00   0.01  0.00  0.00  0.99  0.00  0.00  0.00  0.00  0.00
  WS02004413WS02003067    1.00   0.01  0.01  0.00  0.00  0.00  0.98  0.00  0.00  0.00
  WS02006109WS02006110    1.00   0.00  0.00  0.00  1.00  0.00  0.00  0.00  0.00  0.00
  WS02006110WS02006113    1.00   0.00  0.00  0.00  1.00  0.00  0.00  0.00  0.00  0.00
  WS02006111WS02006112    1.00   0.00  0.00  0.00  1.00  0.00  0.00  0.00  1.00  0.00
  WS02006112WS02006115    1.00   0.00  0.00  0.00  1.00  0.00  0.00  0.00  0.00  0.00
  WS02006113WS02006111    1.00   0.00  0.00  0.00  0.01  0.99  0.00  0.00  0.07  0.00
  WS02006115WS02006116    1.00   0.00  0.00  0.00  1.00  0.00  0.00  0.00  0.00  0.00
  WS02006116WS02004401    1.00   0.00  0.00  0.00  1.00  0.00  0.00  0.00  0.00  0.00
  WS02006228WS02006109    1.00   0.00  0.00  0.00  1.00  0.00  0.00  0.00  0.00  0.00
  WS02006229WS02006228    1.00   0.00  0.00  0.00  1.00  0.00  0.00  0.00  0.00  0.00
  WS02006230WS02006229    1.00   0.00  0.00  0.00  1.00  0.00  0.00  0.00  0.04  0.00
  WS02006231WS02006230    1.00   0.00  0.00  0.00  0.07  0.00  0.93  0.00  0.00  0.00
  WS02006232WS02006231    1.00   0.00  0.00  0.00  0.99  0.00  0.01  0.00  0.00  0.00
  WS02006234WS02006232    1.00   0.00  0.00  0.00  0.99  0.00  0.00  0.00  0.11  0.00
  WS02006235WS02006234    1.00   0.01  0.00  0.00  0.84  0.00  0.14  0.00  0.00  0.00
  WS02006238WS02006235    1.00   0.01  0.00  0.00  0.98  0.01  0.00  0.00  0.01  0.00
  WS02006239WS02006238    1.00   0.01  0.00  0.00  0.98  0.00  0.00  0.00  0.20  0.00
  WS02006240WS02006239    1.00   0.01  0.00  0.00  0.62  0.00  0.00  0.37  0.06  0.00
  WS02006242WS02006240    1.00   0.01  0.00  0.00  0.97  0.00  0.01  0.00  0.00  0.00
  WS02006243WS02006242    1.00   0.01  0.00  0.00  0.98  0.00  0.00  0.01  0.77  0.00
  WS02006245WS02006243    1.00   0.01  0.00  0.00  0.61  0.00  0.00  0.38  0.01  0.00
  WS02006247WS02006245    1.00   0.01  0.00  0.00  0.96  0.00  0.00  0.03  0.00  0.00
  WS02006248WS02006247    1.00   0.01  0.00  0.00  0.98  0.00  0.00  0.01  0.59  0.00
  WS02006249WS02006248    1.00   0.00  0.01  0.00  0.27  0.00  0.72  0.00  0.00  0.00
  WS02006251WS02006249    1.00   0.00  0.00  0.00  0.99  0.01  0.00  0.00  0.71  0.00
  WS02006252WS02006251    1.00   0.01  0.51  0.00  0.00  0.00  0.48  0.00  0.00  0.00
  WS02006256WS02006235    1.00   0.01  0.00  0.00  0.96  0.03  0.00  0.00  0.01  0.00
  WSF200WS02003060        1.00   0.00  0.03  0.00  0.55  0.42  0.00  0.00  0.83  0.00
  YS02001580YS02001583    1.00   0.30  0.57  0.00  0.13  0.00  0.00  0.00  0.67  0.00
  YS02001583YS02001586    1.00   0.45  0.38  0.00  0.18  0.00  0.00  0.00  0.67  0.00
  YS02001586YS02001590    1.00   0.13  0.00  0.00  0.35  0.05  0.00  0.47  0.36  0.00
  YS02001590YS02001593    1.00   0.13  0.01  0.00  0.05  0.00  0.81  0.00  0.00  0.00
  YS02001593YS02001596    1.00   0.14  0.00  0.00  0.06  0.01  0.00  0.79  0.01  0.00
  YS02001596YS02001600    1.00   0.14  0.00  0.00  0.11  0.01  0.00  0.73  0.05  0.00
  YS02001600YS02001601    1.00   0.13  0.01  0.00  0.85  0.00  0.00  0.00  0.67  0.00
  YS02001601YS02001602    1.00   0.13  0.02  0.00  0.86  0.00  0.00  0.00  0.00  0.00
  YS02001602YS02001605    1.00   0.14  0.00  0.00  0.85  0.00  0.00  0.00  0.00  0.00
  YS02001605YS02001607    1.00   0.15  0.00  0.00  0.85  0.00  0.00  0.00  0.01  0.00
  YS02001607YS02001610    1.00   0.14  0.01  0.00  0.85  0.00  0.00  0.00  0.03  0.00
  YS02001610YS02001613    1.00   0.13  0.00  0.00  0.87  0.00  0.00  0.00  0.02  0.00
  YS02001613YS02001616    1.00   0.13  0.00  0.00  0.87  0.00  0.00  0.00  0.01  0.00
  YS02001616YS02001619    1.00   0.13  0.00  0.00  0.87  0.00  0.00  0.00  0.00  0.00
  YS02001619YS02001622    1.00   0.13  0.00  0.00  0.87  0.00  0.00  0.00  0.30  0.00
  YS02001622YS02001625    1.00   0.13  0.00  0.00  0.87  0.00  0.00  0.00  0.08  0.00
  YS02001625YS02001629    1.00   0.13  0.08  0.00  0.08  0.00  0.71  0.00  0.00  0.00
  YS02001629YS02163301    1.00   0.18  0.02  0.00  0.80  0.00  0.00  0.00  0.00  0.00
  YS02001633YS02163601    1.00   0.00  0.01  0.00  0.99  0.00  0.00  0.00  0.16  0.00
  YS02001641YS02001644    1.00   0.00  0.01  0.00  0.99  0.00  0.00  0.00  0.00  0.00
  YS02001644YS02001647    1.00   0.00  0.22  0.00  0.78  0.00  0.00  0.00  0.00  0.00
  YS02001647YS02001649    1.00   0.00  0.22  0.00  0.44  0.34  0.00  0.00  0.59  0.00
  YS02001649YS02001757    1.00   0.00  0.00  0.00  0.62  0.37  0.00  0.00  0.57  0.00
  YS02001652YS02001649    1.00   0.00  0.00  0.00  0.96  0.04  0.00  0.00  0.85  0.00
  YS02001655YS02001652    1.00   0.00  0.00  0.00  0.09  0.01  0.00  0.90  0.06  0.00
  YS02001658YS02001655    1.00   0.00  0.15  0.00  0.57  0.28  0.00  0.00  0.80  0.00
  YS02001661YS02001658    1.00   0.15  0.00  0.00  0.41  0.43  0.00  0.00  0.77  0.00
  YS02001664YS02001661    1.00   0.13  0.00  0.00  0.80  0.08  0.00  0.00  0.87  0.00
  YS02001745YS02001748    1.00   0.00  0.00  0.00  0.00  0.00  0.00  1.00  0.00  0.00
  YS02001748YS02001751    1.00   0.00  0.00  0.00  0.78  0.22  0.00  0.00  0.86  0.00
  YS02001751YS02001754    1.00   0.00  0.00  0.00  0.04  0.01  0.00  0.95  0.03  0.00
  YS02001754YS02001757    1.00   0.00  0.00  0.00  1.00  0.00  0.00  0.00  0.94  0.00
  YS02001757CaochengTiaoxuchi    1.00   0.00  0.00  0.00  0.95  0.05  0.00  0.00  0.94  0.00
  YS02001759YS02001757    1.00   0.00  0.00  0.00  1.00  0.00  0.00  0.00  0.72  0.00
  YS02001762YS02001759    1.00   0.00  0.00  0.00  1.00  0.00  0.00  0.00  0.08  0.00
  YS02001765YS02001762    1.00   0.00  0.00  0.00  1.00  0.00  0.00  0.00  0.82  0.00
  YS02001767YS02001765    1.00   0.00  0.00  0.00  1.00  0.00  0.00  0.00  0.00  0.00
  YS02001770YS02001767    1.00   0.00  0.00  0.00  1.00  0.00  0.00  0.00  0.00  0.00
  YS02001774YS02001770    1.00   0.00  0.14  0.00  0.68  0.00  0.18  0.00  0.06  0.00
  YS02001779YS02001774    1.00   0.00  0.00  0.00  1.00  0.00  0.00  0.00  0.87  0.00
  YS02001783YS02001784    1.00   0.00  0.23  0.00  0.77  0.00  0.00  0.00  0.57  0.00
  YS02001784YS02001785    1.00   0.00  0.00  0.00  1.00  0.00  0.00  0.00  0.21  0.00
  YS02001786YS02001788    1.00   0.00  0.00  0.00  0.81  0.19  0.00  0.00  0.00  0.00
  YS02001788YS02001790    1.00   0.00  0.00  0.00  0.24  0.76  0.00  0.00  0.89  0.00
  YS02001790YS02001791    1.00   0.00  0.00  0.00  0.01  0.99  0.00  0.00  0.13  0.00
  YS02001791YS02001793    1.00   0.00  0.00  0.00  0.00  1.00  0.00  0.00  0.00  0.00
  YS02001793JiankangQianchi    1.00   0.00  0.00  0.00  1.00  0.00  0.00  0.00  1.00  0.00
  YS02001882YS02001884    1.00   0.17  0.02  0.00  0.81  0.00  0.00  0.00  0.00  0.00
  YS02001884YS02001887    1.00   0.06  0.05  0.00  0.89  0.00  0.00  0.00  0.00  0.00
  YS02001887YS02001890    1.00   0.00  0.00  0.00  0.97  0.00  0.03  0.00  0.00  0.00
  YS02001890YS02001895    1.00   0.00  0.20  0.00  0.80  0.00  0.00  0.00  0.00  0.00
  YS02001895YS02001898    1.00   0.20  0.01  0.00  0.77  0.00  0.02  0.00  0.00  0.00
  YS02001898YS02001901    1.00   0.20  0.02  0.00  0.79  0.00  0.00  0.00  0.01  0.00
  YS02001901YS02001904    1.00   0.19  0.00  0.00  0.81  0.00  0.00  0.00  0.00  0.00
  YS02001904YS02001907    1.00   0.00  0.19  0.00  0.81  0.00  0.00  0.00  0.00  0.00
  YS02001907YS02006553    1.00   0.00  0.02  0.00  0.98  0.00  0.00  0.00  0.00  0.00
  YS02001910YS02001907    1.00   0.00  0.00  0.00  0.97  0.00  0.00  0.03  0.13  0.00
  YS02001915YS02001910    1.00   0.00  0.00  0.00  0.97  0.03  0.00  0.00  0.21  0.00
  YS02001918YS02001915    1.00   0.00  0.00  0.00  0.98  0.02  0.00  0.00  0.81  0.00
  YS02001920YS02001918    1.00   0.00  0.00  0.00  1.00  0.00  0.00  0.00  0.01  0.00
  YS02001923YS02001920    1.00   0.00  0.00  0.00  1.00  0.00  0.00  0.00  0.97  0.00
  YS02001926YS02001923    1.00   0.00  0.07  0.00  0.01  0.00  0.91  0.00  0.00  0.00
  YS02001929YS02001926    1.00   0.00  0.13  0.00  0.87  0.00  0.00  0.00  0.87  0.00
  YS02006553YS02006556    1.00   0.01  0.00  0.00  0.99  0.00  0.00  0.00  0.03  0.00
  YS02006556YS02006558    1.00   0.00  0.00  0.00  1.00  0.00  0.00  0.00  0.00  0.00
  YS02006558YS02006561    1.00   0.22  0.00  0.00  0.00  0.77  0.00  0.00  0.19  0.00
  YS02006561YS02001783    1.00   0.22  0.00  0.00  0.04  0.74  0.00  0.00  0.71  0.00
  YS02163301YS02001633    1.00   0.00  0.18  0.00  0.82  0.00  0.00  0.00  0.00  0.00
  YS02163601YS02164001    1.00   0.00  0.08  0.00  0.92  0.00  0.00  0.00  0.00  0.00
  YS02164001YS02001641    1.00   0.01  0.07  0.00  0.92  0.00  0.00  0.00  0.06  0.00
  
  
  *************************
  Conduit Surcharge Summary
  *************************
  
  ----------------------------------------------------------------------------
                                                           Hours        Hours 
                         --------- Hours Full --------   Above Full   Capacity
  Conduit                Both Ends  Upstream  Dnstream   Normal Flow   Limited
  ----------------------------------------------------------------------------
  WS02004401WS02004402        0.01      0.01      0.01      0.01         0.01
  WS02004402WS02004403        0.01      0.01      0.01      0.01         0.01
  WS02004404WS02004405        0.01      0.01      0.01      1.51         0.01
  WS02004405WS02004406        0.01      0.01      0.01      0.01         0.01
  WS02006109WS02006110        0.01      0.01      0.34      0.02         0.01
  WS02006110WS02006113        0.01      0.01      0.33      0.01         0.01
  WS02006111WS02006112        0.01      0.01      0.62      0.01         0.01
  WS02006112WS02006115        0.01      0.01      0.01      0.01         0.01
  WS02006113WS02006111        0.01      0.01      0.01      0.01         0.01
  WS02006115WS02006116        0.01      0.01      0.01      0.01         0.01
  WS02006116WS02004401        0.01      0.01      0.01      0.01         0.01
  WS02006228WS02006109        0.30      0.36      0.30      1.02         0.30
  WS02006229WS02006228        0.29      0.31      0.29      0.61         0.29
  WS02006230WS02006229        0.47      0.57      0.47      2.01         0.47
  WS02006231WS02006230        0.01      0.01      0.03      1.55         0.01
  WS02006232WS02006231        0.02      0.02      0.35      0.04         0.01
  WS02006234WS02006232        0.27      0.27      0.35      0.03         0.03
  WS02006235WS02006234        0.14      0.14      0.31      1.41         0.01
  WS02006238WS02006235        0.32      0.32      0.35      0.01         0.01
  WS02006239WS02006238        0.29      0.30      0.32      0.37         0.20
  WS02006240WS02006239        0.27      0.27      0.27      0.36         0.19
  WS02006242WS02006240        0.27      0.27      0.34      0.54         0.01
  WS02006243WS02006242        0.23      0.23      0.31      0.01         0.01
  WS02006245WS02006243        0.21      0.21      0.22      0.37         0.18
  WS02006247WS02006245        0.21      0.21      0.21      1.34         0.20
  WS02006248WS02006247        0.20      0.20      0.21      0.01         0.01
  WS02006249WS02006248        0.20      0.20      0.20      1.31         0.01
  WS02006251WS02006249        0.19      0.20      0.20      0.46         0.18
  WS02006252WS02006251        0.50      0.50      0.55      0.50         0.01
  WS02006256WS02006235        1.47      1.49      6.11      0.48         0.01
  YS02001580YS02001583        0.06      0.06      0.11      0.01         0.01
  YS02001583YS02001586        0.07      0.07      0.22      0.01         0.01
  YS02001586YS02001590        0.22      0.22      0.27      0.01         0.01
  YS02001590YS02001593        0.28      0.28      0.29      0.28         0.01
  YS02001593YS02001596        0.28      0.28      0.36      0.01         0.01
  YS02001596YS02001600        0.39      0.39      0.45      0.01         0.01
  YS02001600YS02001601        0.50      0.50      0.73      0.01         0.01
  YS02001601YS02001602        0.64      0.64      0.77      0.47         0.01
  YS02001602YS02001605        0.59      0.59      0.64      1.60         0.01
  YS02001605YS02001607        0.56      0.59      0.56      0.70         0.56
  YS02001607YS02001610        0.23      0.23      0.24      0.01         0.01
  YS02001610YS02001613        0.22      0.22      0.24      0.01         0.01
  YS02001613YS02001616        0.19      0.19      0.22      0.01         0.01
  YS02001616YS02001619        0.17      0.17      0.19      0.01         0.01
  YS02001619YS02001622        0.17      0.17      0.17      0.30         0.16
  YS02001622YS02001625        0.17      0.17      0.31      0.01         0.01
  YS02001625YS02001629        0.10      0.10      0.31      0.01         0.01
  YS02001629YS02163301        0.30      0.30      0.31      0.21         0.20
  YS02001633YS02163601        0.32      0.32      0.34      0.24         0.24
  YS02001641YS02001644        0.20      0.24      0.20      0.82         0.20
  YS02001644YS02001647        0.01      0.01      0.20      0.01         0.01
  YS02001649YS02001757        0.01      0.01      0.01      0.11         0.01
  YS02001757CaochengTiaoxuchi        0.01      0.01      0.16      0.12         0.01
  YS02001770YS02001767        0.01      0.01      0.01      0.22         0.01
  YS02001783YS02001784        0.14      0.17      0.14      0.28         0.14
  YS02001784YS02001785        0.01      0.14      0.01      0.43         0.01
  YS02001786YS02001788        0.01      0.01      0.01      0.35         0.01
  YS02001790YS02001791        0.01      0.01      0.01      0.12         0.01
  YS02001793JiankangQianchi        0.01      0.01      7.05      0.01         0.01
  YS02001882YS02001884        0.10      0.10      0.12      0.01         0.01
  YS02001884YS02001887        0.15      0.15      0.16      0.01         0.01
  YS02001887YS02001890        0.17      0.17      0.18      0.01         0.01
  YS02001890YS02001895        0.09      0.09      0.20      0.01         0.01
  YS02001895YS02001898        0.08      0.08      0.09      0.01         0.01
  YS02001898YS02001901        0.10      0.10      0.14      0.01         0.01
  YS02001901YS02001904        0.14      0.14      0.14      0.01         0.01
  YS02001904YS02001907        0.14      0.14      0.34      0.01         0.01
  YS02001907YS02006553        0.44      0.44      0.48      0.01         0.01
  YS02001910YS02001907        0.19      0.19      0.33      0.01         0.01
  YS02001915YS02001910        0.11      0.11      0.19      0.01         0.01
  YS02001918YS02001915        0.01      0.01      0.11      0.01         0.01
  YS02006553YS02006556        0.26      0.26      0.34      0.01         0.01
  YS02006556YS02006558        0.30      0.30      0.35      0.01         0.01
  YS02006558YS02006561        0.01      0.25      0.01      0.40         0.01
  YS02006561YS02001783        0.01      0.01      0.17      0.01         0.01
  YS02163301YS02001633        0.31      0.31      0.34      0.01         0.01
  YS02163601YS02164001        0.26      0.26      0.34      0.13         0.01
  YS02164001YS02001641        0.24      0.26      0.24      0.38         0.24
  
  
  ***************
  Pumping Summary
  ***************
  
  ---------------------------------------------------------------------------------------------------------
                                                  Min       Avg       Max     Total     Power    % Time Off
                        Percent   Number of      Flow      Flow      Flow    Volume     Usage    Pump Curve
  Pump                 Utilized   Start-Ups       LPS       LPS       LPS  10^6 ltr     Kw-hr    Low   High
  ---------------------------------------------------------------------------------------------------------
  CC-R1                    6.78           6      0.00    683.00    683.00     1.334     22.63    0.0   81.2
  CC-R2                   17.60          48      0.00    683.00    683.00     3.463     58.63    0.0   94.6
  CC-S1                   16.53          39      0.00    200.00    200.00     0.952      6.26    0.0    0.0
  CC-S2                    8.31           5      0.00    200.00    200.00     0.479      3.26    0.0    0.0
  JK-R1                    2.29          19      0.00   1000.00   1000.00     0.658      4.93    0.0    0.0
  JK-R2                    3.95          17      0.00   1000.00   1000.00     1.137     10.60    0.0    0.0
  JK-S                     5.16          40      0.00    300.00    300.00     0.446      8.46    0.0    0.0
  

  Analysis begun on:  Fri Aug  4 11:25:58 2023
  Analysis ended on:  Fri Aug  4 11:26:07 2023
  Total elapsed time: 00:00:09