
  OWA STORM WATER MANAGEMENT MODEL - VERSION v5.1.14 (OWA 2022-07-31)
  --------------------------------------------------------------

  WARNING 04: minimum elevation drop used for Conduit WS02004404WS02004405
  WARNING 03: negative offset ignored for Link YS02001904YS02001907
  
  *********************************************************
  NOTE: The summary statistics displayed in this report are
  based on results found at every computational time step,  
  not just on results from each reporting time step.
  *********************************************************
  
  ****************
  Analysis Options
  ****************
  Flow Units ............... LPS
  Process Models:
    Rainfall/Runoff ........ YES
    RDII ................... NO
    Snowmelt ............... NO
    Groundwater ............ NO
    Flow Routing ........... YES
    Ponding Allowed ........ NO
    Water Quality .......... NO
  Infiltration Method ...... HORTON
  Flow Routing Method ...... DYNWAVE
  Surcharge Method ......... EXTRAN
  Starting Date ............ 08/28/2015 08:00:00
  Ending Date .............. 08/28/2015 16:00:00
  Antecedent Dry Days ...... 8.0
  Report Time Step ......... 00:01:00
  Wet Time Step ............ 00:01:00
  Dry Time Step ............ 00:01:00
  Routing Time Step ........ 30.00 sec
  Variable Time Step ....... YES
  Maximum Trials ........... 8
  Number of Threads ........ 4
  Head Tolerance ........... 0.001500 m
  
  
  **************************        Volume         Depth
  Runoff Quantity Continuity     hectare-m            mm
  **************************     ---------       -------
  Initial LID Storage ......         0.049         1.488
  Total Precipitation ......         2.696        81.291
  Evaporation Loss .........         0.000         0.000
  Infiltration Loss ........         0.077         2.333
  Surface Runoff ...........         2.025        61.060
  Final Storage ............         0.644        19.415
  Continuity Error (%) .....        -0.035
  
  
  **************************        Volume        Volume
  Flow Routing Continuity        hectare-m      10^6 ltr
  **************************     ---------     ---------
  Dry Weather Inflow .......         0.025         0.251
  Wet Weather Inflow .......         2.027        20.266
  Groundwater Inflow .......         0.000         0.000
  RDII Inflow ..............         0.000         0.000
  External Inflow ..........         0.083         0.834
  External Outflow .........         1.507        15.068
  Flooding Loss ............         0.679         6.793
  Evaporation Loss .........         0.000         0.000
  Exfiltration Loss ........         0.000         0.000
  Initial Stored Volume ....         0.243         2.431
  Final Stored Volume ......         0.220         2.198
  Continuity Error (%) .....        -1.167
  
  
  *************************
  Highest Continuity Errors
  *************************
  Node YS02001583 (-12.38%)
  Node YS02001884 (5.07%)
  
  
  ***************************
  Time-Step Critical Elements
  ***************************
  Link WS02004404WS02004405 (33.65%)
  Link WS02006252WS02006251 (23.91%)
  Link YS02001791YS02001793 (9.33%)
  Link WS02003066WSF200 (7.73%)
  Link WS02006238WS02006235 (7.48%)
  
  
  ********************************
  Highest Flow Instability Indexes
  ********************************
  Link WS02006113WS02006111 (30)
  Link WS02006238WS02006235 (24)
  Link WS02006111WS02006112 (21)
  Link WS02006235WS02006234 (18)
  Link WS02006252WS02006251 (18)
  
  
  *************************
  Routing Time Step Summary
  *************************
  Minimum Time Step           :     0.01 sec
  Average Time Step           :     2.99 sec
  Maximum Time Step           :    30.00 sec
  Percent in Steady State     :    -0.00
  Average Iterations per Step :     3.23
  Percent Not Converging      :    12.55
  
  
  ***************************
  Subcatchment Runoff Summary
  ***************************
  
  ------------------------------------------------------------------------------------------------------------------------------
                            Total      Total      Total      Total     Imperv       Perv      Total       Total     Peak  Runoff
                           Precip      Runon       Evap      Infil     Runoff     Runoff     Runoff      Runoff   Runoff   Coeff
  Subcatchment                 mm         mm         mm         mm         mm         mm         mm    10^6 ltr      LPS
  ------------------------------------------------------------------------------------------------------------------------------
  sub60                     81.29       0.00       0.00       1.40      54.29       6.13      60.42        0.79   541.27   0.743
  sub61                     81.29       0.00       0.00       2.15      54.24       9.15      63.39        1.16   784.59   0.780
  sub62                     81.29       0.00       0.00       0.95      57.83       4.16      61.99        1.70  1075.76   0.763
  sub63                     81.29       0.00       0.00       3.91      46.46      15.39      61.85        1.40   871.53   0.761
  sub64                     81.29       0.00       0.00       1.88      52.91       7.62      60.52        1.45   866.68   0.745
  sub65                     81.29       0.00       0.00       1.73      57.11       6.96      64.06        1.76  1011.09   0.788
  sub66                     81.29       0.00       0.00       4.52      44.94      14.17      59.11        2.76  1287.93   0.727
  sub67                     81.29       0.00       0.00       0.95      59.28       4.30      63.58        1.18   846.42   0.782
  sub68                     81.29       0.00       0.00       1.65      52.36       7.02      59.38        1.63  1068.57   0.730
  sub69                     81.29       0.00       0.00       1.50      54.68       8.16      62.84        2.33  1313.17   0.773
  sub70                     81.29       0.00       0.00       4.98      43.82      17.64      61.46        1.78   742.66   0.756
  sub71                     81.29       0.00       0.00       0.88      52.54       3.77      56.31        1.47   880.60   0.693
  sub72                     81.29       0.00       0.00       0.84      56.76       3.51      60.27        0.83   450.23   0.741
  

  ***********************
  LID Performance Summary
  ***********************

  --------------------------------------------------------------------------------------------------------------------
                                         Total      Evap     Infil   Surface    Drain    Initial     Final  Continuity
                                        Inflow      Loss      Loss   Outflow   Outflow   Storage   Storage       Error
  Subcatchment      LID Control             mm        mm        mm        mm        mm        mm        mm           %
  --------------------------------------------------------------------------------------------------------------------
  sub60             GreenRoof            81.29      0.00      0.00      0.00      0.00      7.05     88.39       -0.05
  sub61             GreenRoof            81.29      0.00      0.00      0.00      0.00      7.05     88.39       -0.05
  sub62             GreenRoof            81.29      0.00      0.00      0.00      0.00      7.05     88.39       -0.05
  sub63             GreenRoof            81.29      0.00      0.00      0.00      0.00      7.05     88.39       -0.05
  sub64             GreenRoof            81.29      0.00      0.00      0.00      0.00      7.05     88.39       -0.05
  sub65             GreenRoof            81.29      0.00      0.00      0.00      0.00      7.05     88.39       -0.05
  sub66             GreenRoof            81.29      0.00      0.00      0.00      0.00      7.05     88.39       -0.05
  sub67             GreenRoof            81.29      0.00      0.00      0.00      0.00      7.05     88.39       -0.05
  sub68             GreenRoof            81.29      0.00      0.00      0.00      0.00      7.05     88.39       -0.05
  sub69             GreenRoof            81.29      0.00      0.00      0.00      0.00      7.05     88.39       -0.05
  sub70             GreenRoof            81.29      0.00      0.00      0.00      0.00      7.05     88.39       -0.05
  sub71             GreenRoof            81.29      0.00      0.00      0.00      0.00      7.05     88.39       -0.05
  sub72             GreenRoof            81.29      0.00      0.00      0.00      0.00      7.05     88.39       -0.05
  
  ******************
  Node Depth Summary
  ******************
  
  ---------------------------------------------------------------------------------
                                 Average  Maximum  Maximum  Time of Max    Reported
                                   Depth    Depth      HGL   Occurrence   Max Depth
  Node                 Type       Meters   Meters   Meters  days hr:min      Meters
  ---------------------------------------------------------------------------------
  WS02003060           JUNCTION     0.20     0.38     5.32     0  02:36        0.38
  WS02003066           JUNCTION     0.17     0.30     5.85     0  02:35        0.30
  WS02003067           JUNCTION     0.47     0.70     6.02     0  02:35        0.70
  WS02003069           JUNCTION     0.22     0.43     5.01     0  02:36        0.43
  WS02003072           JUNCTION     0.28     0.50     4.87     0  02:37        0.50
  WS02003073           JUNCTION     0.16     0.30     4.36     0  02:37        0.30
  WS02004401           JUNCTION     0.56     0.85     6.85     0  02:32        0.85
  WS02004402           JUNCTION     0.59     0.88     6.84     0  02:33        0.88
  WS02004403           JUNCTION     0.61     0.89     6.82     0  02:33        0.89
  WS02004404           JUNCTION     0.69     0.96     6.81     0  02:33        0.96
  WS02004405           JUNCTION     0.69     0.96     6.81     0  02:33        0.96
  WS02004406           JUNCTION     0.70     0.96     6.79     0  02:33        0.96
  WS02004407           JUNCTION     0.15     0.30     6.61     0  02:33        0.30
  WS02004409           JUNCTION     0.34     0.67     6.44     0  02:34        0.67
  WS02004410           JUNCTION     0.37     0.68     6.40     0  02:34        0.68
  WS02004411           JUNCTION     0.39     0.69     6.37     0  02:34        0.69
  WS02004412           JUNCTION     0.42     0.70     6.34     0  02:35        0.70
  WS02004413           JUNCTION     0.58     0.86     6.33     0  02:35        0.86
  WS02006109           JUNCTION     0.61     1.06     7.68     0  02:44        0.98
  WS02006110           JUNCTION     0.61     1.03     7.62     0  02:44        0.93
  WS02006111           JUNCTION     0.16     0.90     7.60     0  00:00        0.40
  WS02006112           JUNCTION     0.71     2.68     8.56     0  00:00        1.14
  WS02006113           JUNCTION     0.24     1.40     8.29     0  00:00        0.46
  WS02006115           JUNCTION     0.44     1.65     7.79     0  00:00        0.86
  WS02006116           JUNCTION     0.53     1.06     7.10     0  00:00        0.83
  WS02006228           JUNCTION     0.61     1.08     7.73     0  02:44        1.02
  WS02006229           JUNCTION     0.58     1.09     7.78     0  02:44        1.08
  WS02006230           JUNCTION     0.58     1.22     7.96     0  02:44        1.13
  WS02006231           JUNCTION     0.38     0.95     8.08     0  02:44        0.86
  WS02006232           JUNCTION     0.52     1.25     8.28     0  01:38        1.08
  WS02006234           JUNCTION     0.45     1.41     8.57     0  01:38        1.07
  WS02006235           JUNCTION     0.50     1.23     8.39     0  01:38        1.16
  WS02006238           JUNCTION     0.52     1.26     8.40     0  02:44        1.19
  WS02006239           JUNCTION     0.49     1.58     8.79     0  01:38        1.20
  WS02006240           JUNCTION     0.47     1.35     8.64     0  01:38        1.17
  WS02006242           JUNCTION     0.52     1.28     8.55     0  01:38        1.27
  WS02006243           JUNCTION     0.45     1.23     8.65     0  01:38        1.16
  WS02006245           JUNCTION     0.45     1.34     8.82     0  01:38        1.13
  WS02006247           JUNCTION     0.46     1.16     8.66     0  02:44        1.13
  WS02006248           JUNCTION     0.43     1.10     8.69     0  02:44        1.09
  WS02006249           JUNCTION     0.45     1.09     8.69     0  01:39        1.09
  WS02006251           JUNCTION     0.45     1.44     9.11     0  01:39        1.12
  WS02006252           JUNCTION     0.31     1.50     9.74     0  01:36        0.72
  WS02006256           JUNCTION     1.11     2.35     9.28     0  01:31        2.35
  WSF200               JUNCTION     0.14     0.29     5.52     0  02:35        0.29
  YS02001580           JUNCTION     0.13     1.05     9.59     0  01:34        0.78
  YS02001583           JUNCTION     0.16     1.14     9.64     0  01:34        0.82
  YS02001586           JUNCTION     0.26     1.13     9.30     0  01:33        1.13
  YS02001590           JUNCTION     0.38     1.40     9.26     0  01:32        1.37
  YS02001593           JUNCTION     0.30     1.38     9.24     0  01:33        1.29
  YS02001596           JUNCTION     0.42     1.73     9.15     0  01:33        1.66
  YS02001600           JUNCTION     0.51     1.87     9.00     0  01:33        1.87
  YS02001601           JUNCTION     0.72     2.06     8.90     0  01:32        2.06
  YS02001602           JUNCTION     0.61     1.87     8.77     0  01:34        1.87
  YS02001605           JUNCTION     0.57     1.78     8.68     0  01:34        1.78
  YS02001607           JUNCTION     0.53     1.68     8.53     0  01:34        1.66
  YS02001610           JUNCTION     0.57     1.68     8.48     0  01:34        1.68
  YS02001613           JUNCTION     0.53     1.68     8.52     0  01:34        1.67
  YS02001616           JUNCTION     0.46     1.61     8.52     0  01:34        1.61
  YS02001619           JUNCTION     0.44     1.61     8.54     0  01:34        1.61
  YS02001622           JUNCTION     0.43     1.62     8.52     0  01:34        1.58
  YS02001625           JUNCTION     0.67     1.78     8.38     0  01:34        1.78
  YS02001629           JUNCTION     0.56     1.85     8.40     0  01:34        1.85
  YS02001633           JUNCTION     0.64     2.08     8.53     0  01:35        2.07
  YS02001641           JUNCTION     0.61     1.97     8.41     0  01:36        1.95
  YS02001644           JUNCTION     0.60     1.92     8.35     0  01:36        1.92
  YS02001647           JUNCTION     0.39     1.81     8.42     0  01:37        1.75
  YS02001649           JUNCTION     0.45     2.05     8.44     0  01:37        1.98
  YS02001652           JUNCTION     0.34     2.09     8.69     0  01:35        1.82
  YS02001655           JUNCTION     0.26     1.96     8.81     0  01:36        1.61
  YS02001658           JUNCTION     0.19     1.80     8.94     0  01:37        1.38
  YS02001661           JUNCTION     0.20     1.72     9.12     0  01:37        1.21
  YS02001664           JUNCTION     0.08     1.30     9.23     0  01:37        0.75
  YS02001745           JUNCTION     0.10     2.17     9.68     0  01:37        0.74
  YS02001748           JUNCTION     0.18     2.27     9.35     0  01:37        1.18
  YS02001751           JUNCTION     0.22     2.20     9.08     0  01:37        1.38
  YS02001754           JUNCTION     0.30     2.20     8.81     0  01:36        1.65
  YS02001757           JUNCTION     0.47     2.21     8.47     0  01:37        2.00
  YS02001759           JUNCTION     0.41     2.21     8.57     0  01:37        2.01
  YS02001762           JUNCTION     0.40     2.15     8.55     0  01:37        1.99
  YS02001765           JUNCTION     0.38     2.10     8.55     0  01:37        1.95
  YS02001767           JUNCTION     0.38     2.03     8.52     0  01:36        1.93
  YS02001770           JUNCTION     0.39     1.95     8.44     0  01:36        1.95
  YS02001774           JUNCTION     0.46     2.05     8.47     0  01:36        2.00
  YS02001779           JUNCTION     0.28     1.68     8.37     0  01:36        1.68
  YS02001783           JUNCTION     0.29     1.39     7.54     0  01:35        1.24
  YS02001784           JUNCTION     0.30     1.24     7.31     0  01:35        1.12
  YS02001786           JUNCTION     0.25     1.57     7.60     0  01:35        0.88
  YS02001788           JUNCTION     0.18     0.63     6.61     0  01:36        0.63
  YS02001790           JUNCTION     0.21     0.72     6.37     0  01:41        0.72
  YS02001791           JUNCTION     0.13     0.44     5.91     0  01:38        0.43
  YS02001793           JUNCTION     0.07     0.31     5.14     0  01:41        0.30
  YS02001882           JUNCTION     0.37     1.83     8.55     0  01:35        1.64
  YS02001884           JUNCTION     0.46     1.93     8.55     0  01:35        1.75
  YS02001887           JUNCTION     0.53     1.92     8.45     0  01:35        1.83
  YS02001890           JUNCTION     0.56     1.81     8.32     0  01:35        1.81
  YS02001895           JUNCTION     0.33     1.75     8.50     0  01:35        1.57
  YS02001898           JUNCTION     0.34     1.77     8.51     0  01:35        1.56
  YS02001901           JUNCTION     0.44     1.87     8.48     0  01:35        1.67
  YS02001904           JUNCTION     0.42     1.85     8.48     0  01:35        1.65
  YS02001907           JUNCTION     0.74     1.96     8.25     0  01:35        1.96
  YS02001910           JUNCTION     0.54     2.03     8.54     0  01:35        1.97
  YS02001915           JUNCTION     0.36     2.00     8.72     0  01:35        1.94
  YS02001918           JUNCTION     0.20     1.81     8.88     0  01:35        1.81
  YS02001920           JUNCTION     0.28     2.14     9.15     0  01:35        1.81
  YS02001923           JUNCTION     0.15     2.03     9.29     0  01:36        1.51
  YS02001926           JUNCTION     0.19     1.90     9.35     0  01:36        1.31
  YS02001929           JUNCTION     0.11     1.78     9.47     0  01:36        1.06
  YS02006553           JUNCTION     0.75     2.01     8.29     0  01:35        1.98
  YS02006556           JUNCTION     0.72     2.02     8.34     0  01:35        1.96
  YS02006558           JUNCTION     0.76     2.07     8.34     0  01:35        2.01
  YS02006561           JUNCTION     0.18     1.12     7.78     0  01:35        0.90
  YS02163301           JUNCTION     0.58     1.97     8.49     0  02:03        1.97
  YS02163601           JUNCTION     0.67     2.08     8.48     0  01:35        2.08
  YS02164001           JUNCTION     0.60     2.00     8.46     0  02:03        2.00
  CC-1                 OUTFALL      0.00     0.00     0.00     0  00:00        0.00
  CC-2                 OUTFALL      0.00     0.00     0.00     0  00:00        0.00
  JK-1                 OUTFALL      0.00     0.00     0.00     0  00:00        0.00
  JK-2                 OUTFALL      0.00     0.00     0.00     0  00:00        0.00
  WSC                  OUTFALL      0.16     0.30     0.97     0  02:38        0.30
  CC-storage           STORAGE      0.93     1.72     7.22     0  02:11        1.72
  JK-storage           STORAGE      3.04     4.25     5.05     0  01:39        4.23
  
  
  *******************
  Node Inflow Summary
  *******************
  
  -------------------------------------------------------------------------------------------------
                                  Maximum  Maximum                  Lateral       Total        Flow
                                  Lateral    Total  Time of Max      Inflow      Inflow     Balance
                                   Inflow   Inflow   Occurrence      Volume      Volume       Error
  Node                 Type           LPS      LPS  days hr:min    10^6 ltr    10^6 ltr     Percent
  -------------------------------------------------------------------------------------------------
  WS02003060           JUNCTION     16.53   553.89     0  02:36       0.476         4.6       0.047
  WS02003066           JUNCTION      0.00   537.10     0  02:35           0        4.12       0.030
  WS02003067           JUNCTION      0.00   537.08     0  02:35           0        4.13       0.097
  WS02003069           JUNCTION      0.32   553.89     0  02:36     0.00922        4.61       0.075
  WS02003072           JUNCTION      0.00   553.70     0  02:36           0         4.6       0.135
  WS02003073           JUNCTION      1.82   555.47     0  02:37      0.0524        4.65       0.108
  WS02004401           JUNCTION      0.00  1677.78     0  00:00           0        4.23       0.261
  WS02004402           JUNCTION      0.00  1171.33     0  00:01           0        4.22       0.257
  WS02004403           JUNCTION      0.00   884.75     0  00:01           0        4.21       0.252
  WS02004404           JUNCTION      0.16   832.59     0  00:01     0.00467         4.2       0.208
  WS02004405           JUNCTION      0.04   776.49     0  00:01      0.0011        4.19       0.292
  WS02004406           JUNCTION      0.00   711.76     0  00:02           0        4.18       0.510
  WS02004407           JUNCTION      0.00   538.49     0  02:33           0        4.16       0.021
  WS02004409           JUNCTION      0.00   538.11     0  02:33           0        4.16       0.053
  WS02004410           JUNCTION      0.00   537.74     0  02:34           0        4.16       0.095
  WS02004411           JUNCTION      0.00   537.57     0  02:34           0        4.15       0.126
  WS02004412           JUNCTION      0.00   537.31     0  02:34           0        4.15       0.167
  WS02004413           JUNCTION      0.00   537.32     0  02:35           0        4.14       0.310
  WS02006109           JUNCTION      1.23  1308.01     0  00:00      0.0354        4.16       0.263
  WS02006110           JUNCTION      0.00   549.73     0  02:45           0        4.13      -0.885
  WS02006111           JUNCTION      0.00  1176.04     0  00:00           0        4.16      -0.930
  WS02006112           JUNCTION      0.00  2307.30     0  00:00           0         4.2      -0.020
  WS02006113           JUNCTION      0.00   561.34     0  02:44           0        4.12      -1.199
  WS02006115           JUNCTION      0.00   899.27     0  00:00           0        4.18      -0.779
  WS02006116           JUNCTION      0.00  1098.16     0  00:01           0        4.21      -0.559
  WS02006228           JUNCTION      0.00   548.25     0  02:45           0        4.11       0.143
  WS02006229           JUNCTION      0.00   547.95     0  02:45           0         4.1       0.178
  WS02006230           JUNCTION     10.28   571.53     0  02:44       0.296        4.08       0.050
  WS02006231           JUNCTION      0.00   566.85     0  02:44           0        3.77      -0.063
  WS02006232           JUNCTION      0.00   566.15     0  02:44           0        3.78       0.162
  WS02006234           JUNCTION      0.00   562.17     0  02:44           0        3.77      -0.115
  WS02006235           JUNCTION      0.00   558.80     0  02:44           0        3.83       0.146
  WS02006238           JUNCTION      0.00   421.50     0  03:14           0        2.57      -0.039
  WS02006239           JUNCTION      0.00   421.39     0  02:35           0        2.55      -0.057
  WS02006240           JUNCTION      0.00   419.31     0  02:35           0        2.53      -0.015
  WS02006242           JUNCTION      0.00   419.66     0  02:35           0        2.51       0.052
  WS02006243           JUNCTION      0.00   419.55     0  02:35           0         2.5      -0.004
  WS02006245           JUNCTION      0.00   418.52     0  02:35           0        2.49       0.149
  WS02006247           JUNCTION      0.00   417.87     0  03:14           0        2.49       0.011
  WS02006248           JUNCTION      0.00   417.80     0  02:35           0        2.49       0.031
  WS02006249           JUNCTION      0.00   431.33     0  01:39           0        2.86       0.086
  WS02006251           JUNCTION      0.08   409.59     0  01:39     0.00222        2.85      -0.028
  WS02006252           JUNCTION      0.00   400.00     0  01:36           0        2.85      -0.113
  WS02006256           JUNCTION      0.00   300.00     0  01:31           0        1.89      -0.205
  WSF200               JUNCTION      0.00   537.14     0  02:35           0        4.12       0.008
  YS02001580           JUNCTION      0.00   180.80     0  01:34           0     0.00491       2.603
  YS02001583           JUNCTION      0.00   269.32     0  01:34           0      0.0151     -11.014
  YS02001586           JUNCTION    742.66   742.85     0  01:42        1.78        1.79       0.097
  YS02001590           JUNCTION      0.00   318.05     0  01:44           0        1.36      -0.036
  YS02001593           JUNCTION      0.00   318.25     0  01:48           0        1.36      -0.008
  YS02001596           JUNCTION      0.00   318.05     0  01:47           0        1.36      -0.013
  YS02001600           JUNCTION      0.00   318.09     0  01:53           0        1.36      -0.003
  YS02001601           JUNCTION   1313.17  1630.78     0  01:40        2.33        3.69      -0.001
  YS02001602           JUNCTION      0.00   579.12     0  01:34           0        2.27       0.009
  YS02001605           JUNCTION      0.00   579.21     0  01:34           0        2.14       0.012
  YS02001607           JUNCTION      0.00   579.12     0  01:34           0        2.14       0.076
  YS02001610           JUNCTION      0.00   702.54     0  01:42           0        2.36       0.072
  YS02001613           JUNCTION      0.00   547.69     0  01:34           0        1.87       0.070
  YS02001616           JUNCTION      0.00   537.96     0  01:34           0        1.87      -0.000
  YS02001619           JUNCTION   1287.93  1287.93     0  01:41        2.76         4.4      -0.011
  YS02001622           JUNCTION      0.00   958.86     0  01:37           0        4.16      -0.010
  YS02001625           JUNCTION      0.00  1306.13     0  01:42           0        4.35       0.194
  YS02001629           JUNCTION      0.00   937.74     0  01:34           0        3.37       0.003
  YS02001633           JUNCTION   1011.29  1418.22     0  01:35        1.77        4.88       0.060
  YS02001641           JUNCTION      0.00  1417.34     0  01:35           0        4.64       0.051
  YS02001644           JUNCTION    866.71  1937.60     0  01:35        1.46        6.09       0.049
  YS02001647           JUNCTION      0.00  1937.83     0  01:35           0         5.7       0.002
  YS02001649           JUNCTION      0.00  2211.32     0  01:36           0        7.11       0.002
  YS02001652           JUNCTION      0.00  1045.20     0  01:38           0        1.41      -0.094
  YS02001655           JUNCTION      0.15  1044.09     0  01:38     0.00443        1.41      -0.030
  YS02001658           JUNCTION      0.00  1043.82     0  01:38           0        1.41      -0.040
  YS02001661           JUNCTION      0.00  1045.62     0  01:38           0        1.41       0.027
  YS02001664           JUNCTION    871.53   871.53     0  01:39         1.4         1.4      -0.025
  YS02001745           JUNCTION    541.27   738.04     0  01:37       0.795       0.796       0.213
  YS02001748           JUNCTION      0.04   926.69     0  01:36      0.0013       0.802      -0.493
  YS02001751           JUNCTION      0.01   643.39     0  01:37    0.000317       0.814       0.164
  YS02001754           JUNCTION      0.26   644.97     0  01:37     0.00749       0.828      -0.189
  YS02001757           JUNCTION      0.00  3456.53     0  01:37           0        10.6       0.019
  YS02001759           JUNCTION    784.63  1474.64     0  01:37        1.17        2.69      -0.014
  YS02001762           JUNCTION      0.00   733.90     0  01:37           0        1.53      -0.012
  YS02001765           JUNCTION      0.00   733.64     0  01:37           0        1.53      -0.002
  YS02001767           JUNCTION      0.54   736.25     0  01:37      0.0154        1.52      -0.018
  YS02001770           JUNCTION   1075.92  1075.92     0  01:39         1.7        1.75      -0.029
  YS02001774           JUNCTION      0.00   685.10     0  01:36           0       0.261       0.274
  YS02001779           JUNCTION      0.01   684.98     0  01:36    0.000144       0.215      -0.402
  YS02001783           JUNCTION      0.00  1167.28     0  01:37           0        3.95       0.003
  YS02001784           JUNCTION      1.06  1168.78     0  01:37      0.0305        3.98       0.012
  YS02001786           JUNCTION      0.06  1168.56     0  01:37     0.00162        3.99       0.014
  YS02001788           JUNCTION      0.07  1169.14     0  01:37     0.00204        3.99       0.008
  YS02001790           JUNCTION      0.15  1194.55     0  01:36     0.00446        3.99       0.039
  YS02001791           JUNCTION      0.00  1284.20     0  01:38           0        3.99      -0.043
  YS02001793           JUNCTION      0.00  1250.40     0  01:41           0        3.99       0.005
  YS02001882           JUNCTION      0.00    90.84     0  01:34           0      0.0127       4.115
  YS02001884           JUNCTION      0.00   167.16     0  01:35           0      0.0483       5.337
  YS02001887           JUNCTION    846.87   847.76     0  01:38         1.2        1.23       0.353
  YS02001890           JUNCTION      0.00   847.57     0  01:38           0        1.19       0.408
  YS02001895           JUNCTION      0.00   618.89     0  01:35           0        1.09       0.130
  YS02001898           JUNCTION      0.00   618.49     0  01:35           0        1.08      -0.029
  YS02001901           JUNCTION      0.00   617.10     0  01:35           0        1.09       0.293
  YS02001904           JUNCTION      0.00   616.30     0  01:35           0        1.09       0.235
  YS02001907           JUNCTION      0.00  1876.72     0  01:39           0        3.47       0.500
  YS02001910           JUNCTION      0.00  1356.84     0  01:39           0        2.39       0.290
  YS02001915           JUNCTION    880.62  1356.70     0  01:39        1.47        2.44       0.060
  YS02001918           JUNCTION      0.00   846.71     0  01:35           0       0.998      -0.026
  YS02001920           JUNCTION      2.87   795.46     0  01:36      0.0827       0.972       0.062
  YS02001923           JUNCTION      0.04  1072.83     0  01:35     0.00109       0.871      -0.110
  YS02001926           JUNCTION      0.05  1320.31     0  01:36      0.0015        0.85      -0.143
  YS02001929           JUNCTION    450.23   958.32     0  01:36       0.829       0.835      -0.251
  YS02006553           JUNCTION      0.00   789.39     0  01:58           0        2.35       0.506
  YS02006556           JUNCTION      0.00   789.55     0  01:58           0        2.36       0.319
  YS02006558           JUNCTION   1069.45  1174.24     0  01:35        1.66        3.99       0.089
  YS02006561           JUNCTION      0.00  1176.48     0  01:35           0        3.95       0.003
  YS02163301           JUNCTION      0.00   854.49     0  01:35           0        3.35       0.026
  YS02163601           JUNCTION      0.11  1418.61     0  01:35     0.00317        4.64       0.093
  YS02164001           JUNCTION      0.00  1418.12     0  01:35           0        4.64       0.031
  CC-1                 OUTFALL       0.00   683.00     0  01:39           0        4.22       0.000
  CC-2                 OUTFALL       0.00   683.00     0  01:44           0        4.03       0.000
  JK-1                 OUTFALL       0.00  1000.00     0  01:33           0        2.17       0.000
  JK-2                 OUTFALL       0.00     0.00     0  00:00           0           0       0.000 ltr
  WSC                  OUTFALL       0.00   555.42     0  02:38           0        4.64       0.000
  CC-storage           STORAGE       0.00  3458.54     0  01:37           0        12.8      -0.164
  JK-storage           STORAGE       0.00  1207.47     0  01:42           0        4.14      -0.256
  
  
  **********************
  Node Surcharge Summary
  **********************
  
  Surcharging occurs when water rises above the top of the highest conduit.
  ---------------------------------------------------------------------
                                               Max. Height   Min. Depth
                                   Hours       Above Crown    Below Rim
  Node                 Type      Surcharged         Meters       Meters
  ---------------------------------------------------------------------
  WS02006109           JUNCTION        1.76          0.240        1.580
  WS02006110           JUNCTION        1.41          0.124        1.726
  WS02006111           JUNCTION        0.01          0.087        1.783
  WS02006112           JUNCTION        1.39          1.680        0.000
  WS02006113           JUNCTION        0.01          0.600        1.330
  WS02006115           JUNCTION        0.01          0.642        1.608
  WS02006116           JUNCTION        0.01          0.000        2.290
  WS02006228           JUNCTION        1.75          0.253        1.947
  WS02006229           JUNCTION        1.77          0.288        2.162
  WS02006230           JUNCTION        1.40          0.139        1.431
  WS02006231           JUNCTION        1.43          0.245        1.285
  WS02006232           JUNCTION        1.81          0.545        0.935
  WS02006234           JUNCTION        1.53          0.689        0.551
  WS02006235           JUNCTION        1.76          0.518        0.772
  WS02006238           JUNCTION        1.78          0.539        0.891
  WS02006239           JUNCTION        1.74          0.844        0.446
  WS02006240           JUNCTION        1.74          0.640        0.750
  WS02006242           JUNCTION        1.76          0.554        0.266
  WS02006243           JUNCTION        1.74          0.517        0.253
  WS02006245           JUNCTION        1.74          0.630        0.220
  WS02006247           JUNCTION        1.74          0.446        0.314
  WS02006248           JUNCTION        1.73          0.380        0.000
  WS02006249           JUNCTION        1.73          0.390        0.000
  WS02006251           JUNCTION        1.44          0.411        0.769
  WS02006252           JUNCTION        1.77          1.100        0.000
  WS02006256           JUNCTION        3.45          2.050        0.000
  YS02001580           JUNCTION        0.65          0.450        0.000
  YS02001583           JUNCTION        0.66          0.500        0.000
  YS02001586           JUNCTION        0.80          0.510        0.000
  YS02001590           JUNCTION        0.88          0.750        0.000
  YS02001593           JUNCTION        0.88          0.756        0.084
  YS02001596           JUNCTION        0.99          0.998        0.072
  YS02001600           JUNCTION        1.14          1.190        0.000
  YS02001601           JUNCTION        1.57          1.440        0.000
  YS02001602           JUNCTION        1.40          1.270        0.000
  YS02001605           JUNCTION        1.34          1.180        0.000
  YS02001607           JUNCTION        0.87          0.680        0.000
  YS02001610           JUNCTION        0.90          0.680        0.000
  YS02001613           JUNCTION        0.87          0.682        0.018
  YS02001616           JUNCTION        0.83          0.610        0.000
  YS02001619           JUNCTION        0.81          0.610        0.000
  YS02001622           JUNCTION        0.81          0.620        0.000
  YS02001625           JUNCTION        0.99          0.780        0.000
  YS02001629           JUNCTION        0.76          0.470        0.000
  YS02001633           JUNCTION        1.02          1.060        0.000
  YS02001641           JUNCTION        0.99          0.974        0.126
  YS02001644           JUNCTION        0.97          0.920        0.000
  YS02001647           JUNCTION        0.77          0.815        0.085
  YS02001649           JUNCTION        0.91          1.050        0.000
  YS02001652           JUNCTION        0.69          1.060        0.070
  YS02001655           JUNCTION        0.49          0.962        0.238
  YS02001658           JUNCTION        0.23          0.799        0.501
  YS02001661           JUNCTION        0.02          0.647        0.743
  YS02001664           JUNCTION        0.01          0.300        1.010
  YS02001745           JUNCTION        0.01          1.167        0.183
  YS02001748           JUNCTION        0.17          1.190        0.000
  YS02001751           JUNCTION        0.33          1.200        0.000
  YS02001754           JUNCTION        0.58          1.150        0.000
  YS02001757           JUNCTION        0.99          1.210        0.000
  YS02001759           JUNCTION        0.88          1.210        0.000
  YS02001762           JUNCTION        0.85          1.150        0.000
  YS02001765           JUNCTION        0.80          1.100        0.000
  YS02001767           JUNCTION        0.76          1.030        0.000
  YS02001770           JUNCTION        0.72          0.920        0.000
  YS02001774           JUNCTION        0.83          1.050        0.000
  YS02001779           JUNCTION        0.56          0.680        0.000
  YS02001783           JUNCTION        0.53          0.595        1.005
  YS02001784           JUNCTION        0.51          0.439        1.051
  YS02001786           JUNCTION        0.41          0.767        0.663
  YS02001882           JUNCTION        0.48          0.830        0.000
  YS02001884           JUNCTION        0.49          0.870        0.000
  YS02001887           JUNCTION        0.52          0.866        0.084
  YS02001890           JUNCTION        0.54          0.760        0.000
  YS02001895           JUNCTION        0.47          0.750        0.000
  YS02001898           JUNCTION        0.46          0.740        0.000
  YS02001901           JUNCTION        0.51          0.870        0.000
  YS02001904           JUNCTION        0.50          0.850        0.000
  YS02001907           JUNCTION        0.72          0.950        0.000
  YS02001910           JUNCTION        0.56          1.033        0.067
  YS02001915           JUNCTION        0.48          1.000        0.000
  YS02001918           JUNCTION        0.39          0.810        0.000
  YS02001920           JUNCTION        0.41          1.140        0.000
  YS02001923           JUNCTION        0.08          0.820        0.000
  YS02001926           JUNCTION        0.11          0.900        0.000
  YS02001929           JUNCTION        0.01          0.780        0.000
  YS02006553           JUNCTION        0.73          1.006        0.184
  YS02006556           JUNCTION        0.63          0.984        0.366
  YS02006558           JUNCTION        0.63          0.975        0.425
  YS02006561           JUNCTION        0.37          0.315        0.835
  YS02163301           JUNCTION        1.01          0.971        0.059
  YS02163601           JUNCTION        1.06          1.080        0.000
  YS02164001           JUNCTION        0.99          1.002        0.098
  
  
  *********************
  Node Flooding Summary
  *********************
  
  Flooding refers to all water that overflows a node, whether it ponds or not.
  --------------------------------------------------------------------------
                                                             Total   Maximum
                                 Maximum   Time of Max       Flood    Ponded
                        Hours       Rate    Occurrence      Volume     Depth
  Node                 Flooded       LPS   days hr:min    10^6 ltr    Meters
  --------------------------------------------------------------------------
  WS02006112              0.01   1547.89      0  00:00       0.047     0.000
  WS02006248              0.01      7.18      0  02:44       0.000     0.000
  WS02006249              1.44    108.49      0  01:39       0.364     0.000
  WS02006252              0.01    279.23      0  03:23       0.001     0.000
  WS02006256              1.75    283.66      0  01:31       0.602     0.000
  YS02001580              0.01    138.44      0  01:34       0.001     0.000
  YS02001583              0.01    239.03      0  01:34       0.000     0.000
  YS02001586              0.53    425.36      0  01:42       0.416     0.000
  YS02001590              0.01    120.02      0  01:32       0.000     0.000
  YS02001600              0.01      4.92      0  01:33       0.000     0.000
  YS02001601              0.73   1232.80      0  01:40       1.420     0.000
  YS02001602              0.63     61.98      0  02:04       0.129     0.000
  YS02001605              0.01      6.68      0  01:34       0.000     0.000
  YS02001607              0.01     75.74      0  01:34       0.000     0.000
  YS02001610              0.56    702.17      0  01:41       0.725     0.000
  YS02001616              0.01    210.26      0  01:34       0.000     0.000
  YS02001619              0.01    271.09      0  01:34       0.001     0.000
  YS02001622              0.01    277.44      0  01:34       0.001     0.000
  YS02001625              0.54   1306.12      0  01:42       1.214     0.000
  YS02001629              0.12    384.96      0  01:34       0.075     0.000
  YS02001633              0.01      2.00      0  01:35       0.000     0.000
  YS02001644              0.19   1041.68      0  01:38       0.383     0.000
  YS02001649              0.01    222.52      0  01:37       0.002     0.000
  YS02001748              0.01    172.58      0  01:37       0.001     0.000
  YS02001751              0.01    187.45      0  01:37       0.001     0.000
  YS02001754              0.01    384.79      0  01:36       0.000     0.000
  YS02001757              0.01     46.66      0  01:37       0.000     0.000
  YS02001759              0.01     21.54      0  01:37       0.000     0.000
  YS02001762              0.01     31.43      0  01:37       0.000     0.000
  YS02001765              0.01     10.59      0  01:37       0.000     0.000
  YS02001767              0.01    365.31      0  01:36       0.001     0.000
  YS02001770              0.01    388.74      0  01:36       0.002     0.000
  YS02001774              0.01    231.15      0  01:36       0.000     0.000
  YS02001779              0.17    671.02      0  01:36       0.195     0.000
  YS02001882              0.01     69.13      0  01:35       0.000     0.000
  YS02001884              0.01     38.71      0  01:35       0.000     0.000
  YS02001890              0.16    315.85      0  01:38       0.098     0.000
  YS02001895              0.01    282.52      0  01:35       0.000     0.000
  YS02001898              0.01    347.35      0  01:35       0.001     0.000
  YS02001901              0.01     28.76      0  01:35       0.000     0.000
  YS02001904              0.01     60.86      0  01:35       0.000     0.000
  YS02001907              0.34   1765.34      0  01:39       1.113     0.000
  YS02001915              0.01    255.88      0  01:35       0.000     0.000
  YS02001918              0.01    353.48      0  01:35       0.006     0.000
  YS02001920              0.01    255.93      0  01:35       0.000     0.000
  YS02001923              0.01    232.25      0  01:36       0.001     0.000
  YS02001926              0.01    764.35      0  01:36       0.004     0.000
  YS02001929              0.01    708.98      0  01:36       0.004     0.000
  YS02163601              0.01      4.92      0  01:35       0.000     0.000
  
  
  **********************
  Storage Volume Summary
  **********************
  
  --------------------------------------------------------------------------------------------------
                         Average     Avg  Evap Exfil       Maximum     Max    Time of Max    Maximum
                          Volume    Pcnt  Pcnt  Pcnt        Volume    Pcnt     Occurrence    Outflow
  Storage Unit           1000 m3    Full  Loss  Loss       1000 m3    Full    days hr:min        LPS
  --------------------------------------------------------------------------------------------------
  CC-storage               2.590      40     0     0         4.791      75       0  02:11    1766.00
  JK-storage               0.153      52     0     0         0.213      73       0  01:39    1300.00
  
  
  ***********************
  Outfall Loading Summary
  ***********************
  
  -----------------------------------------------------------
                         Flow       Avg       Max       Total
                         Freq      Flow      Flow      Volume
  Outfall Node           Pcnt       LPS       LPS    10^6 ltr
  -----------------------------------------------------------
  CC-1                  32.10    683.00    683.00       4.218
  CC-2                  30.68    683.00    683.00       4.031
  JK-1                  13.53   1000.00   1000.00       2.175
  JK-2                   0.00      0.00      0.00       0.000
  WSC                   99.99    214.31    555.42       4.644
  -----------------------------------------------------------
  System                35.26   2580.31    555.42      15.068
  
  
  ********************
  Link Flow Summary
  ********************
  
  -----------------------------------------------------------------------------
                                 Maximum  Time of Max   Maximum    Max/    Max/
                                  |Flow|   Occurrence   |Veloc|    Full    Full
  Link                 Type          LPS  days hr:min     m/sec    Flow   Depth
  -----------------------------------------------------------------------------
  1                    CONDUIT    555.42     0  02:38      2.83    0.19    0.30
  WS02003060WS02003069 CONDUIT    553.57     0  02:36      1.64    0.22    0.34
  WS02003066WSF200     CONDUIT    537.14     0  02:35      2.85    0.09    0.22
  WS02003067WS02003066 CONDUIT    537.10     0  02:35      1.21    0.17    0.42
  WS02003069WS02003072 CONDUIT    553.70     0  02:36      1.37    0.27    0.39
  WS02003072WS02003073 CONDUIT    553.65     0  02:37      1.44    1.20    0.37
  WS02004401WS02004402 CONDUIT   1171.33     0  00:01      2.51    1.41    0.86
  WS02004402WS02004403 CONDUIT    884.75     0  00:01      2.16    1.27    0.88
  WS02004403WS02004404 CONDUIT    832.43     0  00:01      1.96    0.60    0.93
  WS02004404WS02004405 CONDUIT    776.45     0  00:01      2.26    7.61    0.96
  WS02004405WS02004406 CONDUIT    711.76     0  00:02      2.15    1.40    0.96
  WS02004406WS02004407 CONDUIT    538.49     0  02:33      1.04    0.24    0.63
  WS02004407WS02004409 CONDUIT    538.11     0  02:33      1.95    0.19    0.48
  WS02004409WS02004410 CONDUIT    537.74     0  02:34      1.31    0.70    0.67
  WS02004410WS02004411 CONDUIT    537.57     0  02:34      1.19    0.73    0.69
  WS02004411WS02004412 CONDUIT    537.31     0  02:34      1.07    0.76    0.69
  WS02004412WS02004413 CONDUIT    537.32     0  02:35      1.10    0.36    0.78
  WS02004413WS02003067 CONDUIT    537.08     0  02:35      1.11    0.23    0.59
  WS02006109WS02006110 CONDUIT   1306.78     0  00:00      3.14    2.51    1.00
  WS02006110WS02006113 CONDUIT    561.34     0  02:44      1.35    0.51    1.00
  WS02006111WS02006112 CONDUIT   2307.30     0  00:00      9.18    1.10    0.91
  WS02006112WS02006115 CONDUIT    899.27     0  00:00      1.16    0.53    1.00
  WS02006113WS02006111 CONDUIT   1176.04     0  00:00      2.47    1.41    1.00
  WS02006115WS02006116 CONDUIT   1098.16     0  00:01      1.72    1.41    1.00
  WS02006116WS02004401 CONDUIT   1677.78     0  00:00      2.92    2.31    0.84
  WS02006228WS02006109 CONDUIT    548.06     0  02:45      1.40    2.39    1.00
  WS02006229WS02006228 CONDUIT    548.25     0  02:45      1.24    1.82    1.00
  WS02006230WS02006229 CONDUIT    547.95     0  02:45      1.42   12.19    1.00
  WS02006231WS02006230 CONDUIT    561.25     0  02:44      1.53    8.51    1.00
  WS02006232WS02006231 CONDUIT    566.85     0  02:44      1.48    1.19    1.00
  WS02006234WS02006232 CONDUIT    566.15     0  02:44      1.47    1.15    1.00
  WS02006235WS02006234 CONDUIT    562.17     0  02:44      1.46    5.93    1.00
  WS02006238WS02006235 CONDUIT    420.64     0  03:14      1.38    0.94    1.00
  WS02006239WS02006238 CONDUIT    421.50     0  03:14      1.10    1.35    1.00
  WS02006240WS02006239 CONDUIT    421.39     0  02:35      1.09    1.33    1.00
  WS02006242WS02006240 CONDUIT    419.31     0  02:35      1.09    1.67    1.00
  WS02006243WS02006242 CONDUIT    419.66     0  02:35      1.15    0.90    1.00
  WS02006245WS02006243 CONDUIT    419.55     0  02:35      1.15    1.24    1.00
  WS02006247WS02006245 CONDUIT    418.52     0  02:35      1.10    3.32    1.00
  WS02006248WS02006247 CONDUIT    417.87     0  03:14      1.13    0.91    1.00
  WS02006249WS02006248 CONDUIT    417.80     0  02:35      1.21    2.29    1.00
  WS02006251WS02006249 CONDUIT    431.33     0  01:39      1.74    1.24    1.00
  WS02006252WS02006251 CONDUIT    409.51     0  01:39     25.48    1.50    1.00
  WS02006256WS02006235 CONDUIT    288.67     0  05:50      4.21    3.06    1.00
  WSF200WS02003060     CONDUIT    537.36     0  02:36      2.06    0.12    0.28
  YS02001580YS02001583 CONDUIT    180.80     0  01:34      0.92    0.70    1.00
  YS02001583YS02001586 CONDUIT    212.34     0  01:34      0.94    0.32    1.00
  YS02001586YS02001590 CONDUIT    318.05     0  01:44      1.29    0.56    1.00
  YS02001590YS02001593 CONDUIT    318.25     0  01:48      1.13    2.00    1.00
  YS02001593YS02001596 CONDUIT    318.05     0  01:47      1.73    0.50    1.00
  YS02001596YS02001600 CONDUIT    318.09     0  01:53      1.21    0.62    1.00
  YS02001600YS02001601 CONDUIT    318.47     0  01:48      1.13    0.55    1.00
  YS02001601YS02001602 CONDUIT    579.12     0  01:34      2.05    2.09    1.00
  YS02001602YS02001605 CONDUIT    579.21     0  01:34      2.05   12.26    1.00
  YS02001605YS02001607 CONDUIT    579.12     0  01:34      2.05    3.18    1.00
  YS02001607YS02001610 CONDUIT    544.80     0  01:34      0.72    0.52    1.00
  YS02001610YS02001613 CONDUIT    547.69     0  01:34      0.70    0.63    1.00
  YS02001613YS02001616 CONDUIT    537.96     0  01:34      0.69    0.46    1.00
  YS02001616YS02001619 CONDUIT    507.05     0  01:34      0.68    0.88    1.00
  YS02001619YS02001622 CONDUIT    958.86     0  01:37      1.30    1.41    1.00
  YS02001622YS02001625 CONDUIT    959.56     0  01:37      1.22    0.51    1.00
  YS02001625YS02001629 CONDUIT    937.74     0  01:34      1.19    0.45    1.00
  YS02001629YS02163301 CONDUIT    854.49     0  01:35      1.09    1.05    1.00
  YS02001633YS02163601 CONDUIT   1418.50     0  01:35      1.81    1.49    1.00
  YS02001641YS02001644 CONDUIT   1417.17     0  01:35      1.80    4.58    1.00
  YS02001644YS02001647 CONDUIT   1937.83     0  01:35      2.47    1.14    1.00
  YS02001647YS02001649 CONDUIT   1946.01     0  01:35      2.48    1.03    1.00
  YS02001649YS02001757 CONDUIT   2211.70     0  01:36      2.82    1.34    1.00
  YS02001652YS02001649 CONDUIT   1045.85     0  01:38      1.33    0.52    1.00
  YS02001655YS02001652 CONDUIT   1045.20     0  01:38      1.56    0.51    1.00
  YS02001658YS02001655 CONDUIT   1043.94     0  01:38      2.06    0.44    1.00
  YS02001661YS02001658 CONDUIT   1043.82     0  01:38      2.49    0.41    1.00
  YS02001664YS02001661 CONDUIT   1045.62     0  01:38      2.56    0.33    1.00
  YS02001745YS02001748 CONDUIT    643.08     0  01:37      2.43    0.25    1.00
  YS02001748YS02001751 CONDUIT    643.38     0  01:37      1.89    0.32    1.00
  YS02001751YS02001754 CONDUIT    644.71     0  01:37      1.58    0.31    1.00
  YS02001754YS02001757 CONDUIT    647.88     0  01:37      0.82    0.26    1.00
  YS02001757CaochengTiaoxuchi CONDUIT   3458.54     0  01:37      4.40    1.50    1.00
  YS02001759YS02001757 CONDUIT   1475.57     0  01:37      1.88    1.05    1.00
  YS02001762YS02001759 CONDUIT    736.13     0  01:37      0.94    0.85    1.00
  YS02001765YS02001762 CONDUIT    733.90     0  01:37      0.93    0.69    1.00
  YS02001767YS02001765 CONDUIT    733.64     0  01:37      0.93    0.92    1.00
  YS02001770YS02001767 CONDUIT    735.71     0  01:37      0.94    2.91    1.00
  YS02001774YS02001770 CONDUIT    685.10     0  01:36      0.87    0.44    1.00
  YS02001779YS02001774 CONDUIT    684.97     0  01:36      0.87    0.35    1.00
  YS02001783YS02001784 CONDUIT   1167.72     0  01:37      2.32    1.61    1.00
  YS02001784YS02001785 CONDUIT   1168.50     0  01:37      2.32    2.72    1.00
  YS02001786YS02001788 CONDUIT   1169.07     0  01:37      2.49    2.25    0.90
  YS02001788YS02001790 CONDUIT   1194.40     0  01:36      2.73    0.88    0.84
  YS02001790YS02001791 CONDUIT   1284.20     0  01:38      3.44    1.40    0.70
  YS02001791YS02001793 CONDUIT   1250.40     0  01:41      6.23    0.54    0.45
  YS02001793JiankangQianchi CONDUIT   1207.47     0  01:42      2.24    0.10    0.65
  YS02001882YS02001884 CONDUIT     90.84     0  01:34      0.17    0.10    1.00
  YS02001884YS02001887 CONDUIT    167.16     0  01:35      0.21    0.22    1.00
  YS02001887YS02001890 CONDUIT    847.57     0  01:38      1.08    1.45    1.00
  YS02001890YS02001895 CONDUIT    618.89     0  01:35      0.79    0.29    1.00
  YS02001895YS02001898 CONDUIT    618.49     0  01:35      0.79    1.07    1.00
  YS02001898YS02001901 CONDUIT    617.10     0  01:35      0.79    0.40    1.00
  YS02001901YS02001904 CONDUIT    616.30     0  01:35      0.78    0.96    1.00
  YS02001904YS02001907 CONDUIT    615.12     0  01:35      0.78    0.22    1.00
  YS02001907YS02006553 CONDUIT    789.39     0  01:58      0.88    0.93    1.00
  YS02001910YS02001907 CONDUIT   1357.09     0  01:39      1.73    0.77    1.00
  YS02001915YS02001910 CONDUIT   1356.84     0  01:39      1.73    0.67    1.00
  YS02001918YS02001915 CONDUIT    846.71     0  01:35      1.08    0.47    1.00
  YS02001920YS02001918 CONDUIT    792.59     0  01:36      1.01    0.77    1.00
  YS02001923YS02001920 CONDUIT    811.78     0  01:36      1.10    0.36    1.00
  YS02001926YS02001923 CONDUIT   1048.73     0  01:36      1.46    1.50    1.00
  YS02001929YS02001926 CONDUIT    630.83     0  01:36      1.27    0.30    1.00
  YS02006553YS02006556 CONDUIT    789.55     0  01:58      1.01    0.68    1.00
  YS02006556YS02006558 CONDUIT    791.78     0  01:58      1.01    0.63    1.00
  YS02006558YS02006561 CONDUIT   1176.48     0  01:35      4.17    2.60    1.00
  YS02006561YS02001783 CONDUIT   1167.28     0  01:37      2.32    0.60    1.00
  YS02163301YS02001633 CONDUIT    854.57     0  01:35      1.09    0.80    1.00
  YS02163601YS02164001 CONDUIT   1418.12     0  01:35      1.81    1.26    1.00
  YS02164001YS02001641 CONDUIT   1417.34     0  01:35      1.80    1.94    1.00
  CC-R1                PUMP       683.00     0  01:39              1.00
  CC-R2                PUMP       683.00     0  01:44              1.00
  CC-S1                PUMP       200.00     0  00:34              1.00
  CC-S2                PUMP       200.00     0  01:36              1.00
  JK-R1                PUMP      1000.00     0  01:33              1.00
  JK-R2                PUMP         0.00     0  00:00              0.00
  JK-S                 PUMP       300.00     0  01:31              1.00
  
  
  ***************************
  Flow Classification Summary
  ***************************
  
  -------------------------------------------------------------------------------------
                      Adjusted    ---------- Fraction of Time in Flow Class ---------- 
                       /Actual         Up    Down  Sub   Sup   Up    Down  Norm  Inlet 
  Conduit               Length    Dry  Dry   Dry   Crit  Crit  Crit  Crit  Ltd   Ctrl  
  -------------------------------------------------------------------------------------
  1                       1.00   0.00  0.00  0.00  0.00  1.00  0.00  0.00  0.58  0.00
  WS02003060WS02003069    1.00   0.00  0.00  0.00  0.93  0.07  0.00  0.00  0.72  0.00
  WS02003066WSF200        1.00   0.02  0.00  0.00  0.00  0.98  0.00  0.00  0.78  0.00
  WS02003067WS02003066    1.00   0.01  0.00  0.00  0.98  0.00  0.00  0.00  0.00  0.00
  WS02003069WS02003072    1.00   0.00  0.00  0.00  1.00  0.00  0.00  0.00  0.76  0.00
  WS02003072WS02003073    1.00   0.00  0.00  0.00  0.00  0.00  0.00  1.00  0.00  0.00
  WS02004401WS02004402    1.00   0.00  0.00  0.00  1.00  0.00  0.00  0.00  0.00  0.00
  WS02004402WS02004403    1.00   0.00  0.00  0.00  1.00  0.00  0.00  0.00  0.00  0.00
  WS02004403WS02004404    1.00   0.00  0.00  0.00  1.00  0.00  0.00  0.00  0.00  0.00
  WS02004404WS02004405    1.00   0.00  0.00  0.00  1.00  0.00  0.00  0.00  0.01  0.00
  WS02004405WS02004406    1.00   0.00  0.00  0.00  1.00  0.00  0.00  0.00  0.00  0.00
  WS02004406WS02004407    1.00   0.00  0.00  0.00  1.00  0.00  0.00  0.00  0.00  0.00
  WS02004407WS02004409    1.00   0.00  0.00  0.00  0.99  0.00  0.00  0.00  0.99  0.00
  WS02004409WS02004410    1.00   0.00  0.00  0.00  1.00  0.00  0.00  0.00  0.00  0.00
  WS02004410WS02004411    1.00   0.00  0.00  0.00  1.00  0.00  0.00  0.00  0.00  0.00
  WS02004411WS02004412    1.00   0.00  0.00  0.00  0.99  0.00  0.00  0.00  0.00  0.00
  WS02004412WS02004413    1.00   0.01  0.00  0.00  0.99  0.00  0.00  0.00  0.00  0.00
  WS02004413WS02003067    1.00   0.01  0.00  0.00  0.00  0.00  0.99  0.00  0.00  0.00
  WS02006109WS02006110    1.00   0.00  0.00  0.00  1.00  0.00  0.00  0.00  0.00  0.00
  WS02006110WS02006113    1.00   0.00  0.00  0.00  1.00  0.00  0.00  0.00  0.00  0.00
  WS02006111WS02006112    1.00   0.00  0.00  0.00  1.00  0.00  0.00  0.00  1.00  0.00
  WS02006112WS02006115    1.00   0.00  0.00  0.00  1.00  0.00  0.00  0.00  0.00  0.00
  WS02006113WS02006111    1.00   0.00  0.00  0.00  0.00  1.00  0.00  0.00  0.10  0.00
  WS02006115WS02006116    1.00   0.00  0.00  0.00  1.00  0.00  0.00  0.00  0.00  0.00
  WS02006116WS02004401    1.00   0.00  0.00  0.00  1.00  0.00  0.00  0.00  0.00  0.00
  WS02006228WS02006109    1.00   0.00  0.00  0.00  1.00  0.00  0.00  0.00  0.00  0.00
  WS02006229WS02006228    1.00   0.00  0.00  0.00  1.00  0.00  0.00  0.00  0.00  0.00
  WS02006230WS02006229    1.00   0.00  0.00  0.00  1.00  0.00  0.00  0.00  0.01  0.00
  WS02006231WS02006230    1.00   0.00  0.00  0.00  0.37  0.00  0.63  0.00  0.00  0.00
  WS02006232WS02006231    1.00   0.00  0.00  0.00  0.98  0.00  0.02  0.00  0.00  0.00
  WS02006234WS02006232    1.00   0.00  0.00  0.00  0.99  0.00  0.00  0.00  0.44  0.00
  WS02006235WS02006234    1.00   0.05  0.00  0.00  0.68  0.00  0.27  0.00  0.00  0.00
  WS02006238WS02006235    1.00   0.01  0.00  0.00  0.99  0.00  0.00  0.00  0.01  0.00
  WS02006239WS02006238    1.00   0.05  0.00  0.00  0.95  0.00  0.00  0.01  0.45  0.00
  WS02006240WS02006239    1.00   0.05  0.00  0.00  0.63  0.00  0.00  0.32  0.02  0.00
  WS02006242WS02006240    1.00   0.03  0.02  0.00  0.93  0.00  0.02  0.00  0.01  0.00
  WS02006243WS02006242    1.00   0.02  0.00  0.00  0.94  0.00  0.00  0.04  0.60  0.00
  WS02006245WS02006243    1.00   0.02  0.00  0.00  0.69  0.00  0.00  0.30  0.00  0.00
  WS02006247WS02006245    1.00   0.01  0.00  0.00  0.94  0.00  0.00  0.05  0.00  0.00
  WS02006248WS02006247    1.00   0.01  0.00  0.00  0.95  0.00  0.00  0.04  0.18  0.00
  WS02006249WS02006248    1.00   0.00  0.01  0.00  0.59  0.00  0.40  0.00  0.00  0.00
  WS02006251WS02006249    1.00   0.00  0.00  0.00  0.99  0.00  0.00  0.00  0.70  0.00
  WS02006252WS02006251    1.00   0.04  0.35  0.00  0.27  0.00  0.34  0.00  0.00  0.00
  WS02006256WS02006235    1.00   0.01  0.00  0.00  0.99  0.01  0.00  0.00  0.01  0.00
  WSF200WS02003060        1.00   0.00  0.02  0.00  0.47  0.52  0.00  0.00  0.70  0.00
  YS02001580YS02001583    1.00   0.28  0.39  0.00  0.33  0.00  0.00  0.00  0.70  0.00
  YS02001583YS02001586    1.00   0.28  0.31  0.00  0.40  0.00  0.01  0.00  0.70  0.00
  YS02001586YS02001590    1.00   0.07  0.00  0.00  0.63  0.04  0.00  0.25  0.31  0.00
  YS02001590YS02001593    1.00   0.07  0.00  0.00  0.23  0.00  0.69  0.00  0.00  0.00
  YS02001593YS02001596    1.00   0.07  0.00  0.00  0.27  0.02  0.00  0.64  0.02  0.00
  YS02001596YS02001600    1.00   0.08  0.00  0.00  0.40  0.02  0.00  0.51  0.05  0.00
  YS02001600YS02001601    1.00   0.07  0.00  0.00  0.92  0.00  0.00  0.00  0.61  0.00
  YS02001601YS02001602    1.00   0.07  0.00  0.00  0.93  0.00  0.00  0.00  0.00  0.00
  YS02001602YS02001605    1.00   0.07  0.00  0.00  0.92  0.00  0.00  0.00  0.00  0.00
  YS02001605YS02001607    1.00   0.08  0.00  0.00  0.92  0.00  0.00  0.00  0.00  0.00
  YS02001607YS02001610    1.00   0.07  0.00  0.00  0.92  0.00  0.00  0.00  0.01  0.00
  YS02001610YS02001613    1.00   0.07  0.00  0.00  0.93  0.00  0.00  0.00  0.00  0.00
  YS02001613YS02001616    1.00   0.07  0.00  0.00  0.93  0.00  0.00  0.00  0.00  0.00
  YS02001616YS02001619    1.00   0.07  0.00  0.00  0.93  0.00  0.00  0.00  0.00  0.00
  YS02001619YS02001622    1.00   0.07  0.00  0.00  0.93  0.00  0.00  0.00  0.35  0.00
  YS02001622YS02001625    1.00   0.07  0.00  0.00  0.93  0.00  0.00  0.00  0.03  0.00
  YS02001625YS02001629    1.00   0.07  0.09  0.00  0.31  0.00  0.53  0.00  0.00  0.00
  YS02001629YS02163301    1.00   0.08  0.03  0.00  0.89  0.00  0.00  0.00  0.00  0.00
  YS02001633YS02163601    1.00   0.00  0.00  0.00  1.00  0.00  0.00  0.00  0.14  0.00
  YS02001641YS02001644    1.00   0.00  0.00  0.00  1.00  0.00  0.00  0.00  0.00  0.00
  YS02001644YS02001647    1.00   0.00  0.14  0.00  0.86  0.00  0.00  0.00  0.00  0.00
  YS02001647YS02001649    1.00   0.00  0.14  0.00  0.66  0.21  0.00  0.00  0.58  0.00
  YS02001649YS02001757    1.00   0.00  0.00  0.00  0.78  0.22  0.00  0.00  0.53  0.00
  YS02001652YS02001649    1.00   0.00  0.00  0.00  0.90  0.10  0.00  0.00  0.74  0.00
  YS02001655YS02001652    1.00   0.00  0.00  0.00  0.31  0.04  0.00  0.65  0.05  0.00
  YS02001658YS02001655    1.00   0.00  0.08  0.00  0.56  0.36  0.00  0.00  0.68  0.00
  YS02001661YS02001658    1.00   0.08  0.00  0.00  0.44  0.48  0.00  0.00  0.72  0.00
  YS02001664YS02001661    1.00   0.07  0.00  0.00  0.69  0.24  0.00  0.00  0.85  0.00
  YS02001745YS02001748    1.00   0.00  0.00  0.00  0.19  0.01  0.00  0.79  0.05  0.00
  YS02001748YS02001751    1.00   0.00  0.00  0.00  0.67  0.33  0.00  0.00  0.77  0.00
  YS02001751YS02001754    1.00   0.00  0.00  0.00  0.28  0.01  0.00  0.71  0.02  0.00
  YS02001754YS02001757    1.00   0.00  0.00  0.00  1.00  0.00  0.00  0.00  0.82  0.00
  YS02001757CaochengTiaoxuchi    1.00   0.00  0.00  0.00  1.00  0.00  0.00  0.00  0.68  0.00
  YS02001759YS02001757    1.00   0.00  0.00  0.00  1.00  0.00  0.00  0.00  0.70  0.00
  YS02001762YS02001759    1.00   0.00  0.00  0.00  1.00  0.00  0.00  0.00  0.03  0.00
  YS02001765YS02001762    1.00   0.00  0.00  0.00  1.00  0.00  0.00  0.00  0.73  0.00
  YS02001767YS02001765    1.00   0.00  0.00  0.00  1.00  0.00  0.00  0.00  0.00  0.00
  YS02001770YS02001767    1.00   0.00  0.00  0.00  1.00  0.00  0.00  0.00  0.00  0.00
  YS02001774YS02001770    1.00   0.00  0.07  0.00  0.77  0.00  0.15  0.00  0.02  0.00
  YS02001779YS02001774    1.00   0.00  0.00  0.00  1.00  0.00  0.00  0.00  0.78  0.00
  YS02001783YS02001784    1.00   0.00  0.16  0.00  0.84  0.00  0.00  0.00  0.57  0.00
  YS02001784YS02001785    1.00   0.00  0.00  0.00  1.00  0.00  0.00  0.00  0.16  0.00
  YS02001786YS02001788    1.00   0.00  0.00  0.00  0.63  0.37  0.00  0.00  0.00  0.00
  YS02001788YS02001790    1.00   0.00  0.00  0.00  0.24  0.76  0.00  0.00  0.80  0.00
  YS02001790YS02001791    1.00   0.00  0.00  0.00  0.01  0.99  0.00  0.00  0.17  0.00
  YS02001791YS02001793    1.00   0.00  0.00  0.00  0.00  1.00  0.00  0.00  0.01  0.00
  YS02001793JiankangQianchi    1.00   0.00  0.00  0.00  1.00  0.00  0.00  0.00  0.94  0.00
  YS02001882YS02001884    1.00   0.08  0.02  0.00  0.90  0.00  0.00  0.00  0.00  0.00
  YS02001884YS02001887    1.00   0.03  0.03  0.00  0.94  0.00  0.00  0.00  0.00  0.00
  YS02001887YS02001890    1.00   0.00  0.00  0.00  0.98  0.00  0.02  0.00  0.00  0.00
  YS02001890YS02001895    1.00   0.00  0.11  0.00  0.89  0.00  0.00  0.00  0.00  0.00
  YS02001895YS02001898    1.00   0.11  0.01  0.00  0.83  0.00  0.05  0.00  0.00  0.00
  YS02001898YS02001901    1.00   0.12  0.00  0.00  0.88  0.00  0.00  0.00  0.01  0.00
  YS02001901YS02001904    1.00   0.12  0.00  0.00  0.88  0.00  0.00  0.00  0.00  0.00
  YS02001904YS02001907    1.00   0.00  0.12  0.00  0.88  0.00  0.00  0.00  0.00  0.00
  YS02001907YS02006553    1.00   0.00  0.01  0.00  0.99  0.00  0.00  0.00  0.00  0.00
  YS02001910YS02001907    1.00   0.00  0.00  0.00  0.98  0.00  0.00  0.01  0.12  0.00
  YS02001915YS02001910    1.00   0.00  0.00  0.00  0.98  0.02  0.00  0.00  0.14  0.00
  YS02001918YS02001915    1.00   0.00  0.00  0.00  0.99  0.01  0.00  0.00  0.76  0.00
  YS02001920YS02001918    1.00   0.00  0.00  0.00  1.00  0.00  0.00  0.00  0.01  0.00
  YS02001923YS02001920    1.00   0.00  0.00  0.00  1.00  0.00  0.00  0.00  0.92  0.00
  YS02001926YS02001923    1.00   0.00  0.04  0.00  0.10  0.00  0.86  0.00  0.00  0.00
  YS02001929YS02001926    1.00   0.00  0.07  0.00  0.93  0.00  0.00  0.00  0.82  0.00
  YS02006553YS02006556    1.00   0.01  0.00  0.00  0.99  0.00  0.00  0.00  0.03  0.00
  YS02006556YS02006558    1.00   0.00  0.00  0.00  1.00  0.00  0.00  0.00  0.00  0.00
  YS02006558YS02006561    1.00   0.16  0.00  0.00  0.10  0.74  0.00  0.00  0.18  0.00
  YS02006561YS02001783    1.00   0.16  0.00  0.00  0.15  0.69  0.00  0.00  0.70  0.00
  YS02163301YS02001633    1.00   0.00  0.08  0.00  0.92  0.00  0.00  0.00  0.00  0.00
  YS02163601YS02164001    1.00   0.00  0.05  0.00  0.95  0.00  0.00  0.00  0.00  0.00
  YS02164001YS02001641    1.00   0.01  0.04  0.00  0.95  0.00  0.00  0.00  0.05  0.00
  
  
  *************************
  Conduit Surcharge Summary
  *************************
  
  ----------------------------------------------------------------------------
                                                           Hours        Hours 
                         --------- Hours Full --------   Above Full   Capacity
  Conduit                Both Ends  Upstream  Dnstream   Normal Flow   Limited
  ----------------------------------------------------------------------------
  WS02003072WS02003073        0.01      0.01      0.01      1.52         0.01
  WS02004401WS02004402        0.01      0.01      0.01      0.01         0.01
  WS02004402WS02004403        0.01      0.01      0.01      0.01         0.01
  WS02004404WS02004405        0.01      0.01      0.01      2.45         0.01
  WS02004405WS02004406        0.01      0.01      0.01      1.35         0.01
  WS02006109WS02006110        1.40      1.41      1.81      1.43         0.01
  WS02006110WS02006113        0.01      0.01      1.80      0.01         0.01
  WS02006111WS02006112        0.01      0.01      1.91      0.01         0.01
  WS02006112WS02006115        0.01      0.01      1.38      0.01         0.01
  WS02006113WS02006111        0.01      0.01      0.01      0.01         0.01
  WS02006115WS02006116        0.01      0.01      0.01      0.01         0.01
  WS02006116WS02004401        0.01      0.01      0.01      0.01         0.01
  WS02006228WS02006109        1.76      1.81      1.76      1.96         1.76
  WS02006229WS02006228        1.75      1.77      1.75      1.90         1.75
  WS02006230WS02006229        1.85      1.88      1.85      2.68         1.85
  WS02006231WS02006230        1.40      1.40      1.44      2.49         0.01
  WS02006232WS02006231        1.43      1.43      1.81      1.44         0.01
  WS02006234WS02006232        1.73      1.73      1.81      1.44         1.44
  WS02006235WS02006234        1.53      1.53      1.76      2.39         0.01
  WS02006238WS02006235        1.77      1.77      1.81      0.01         0.01
  WS02006239WS02006238        1.75      1.76      1.78      1.75         1.60
  WS02006240WS02006239        1.74      1.75      1.74      1.75         1.48
  WS02006242WS02006240        1.74      1.74      1.76      1.77         0.01
  WS02006243WS02006242        1.74      1.74      1.76      0.01         0.01
  WS02006245WS02006243        1.74      1.74      1.74      0.32         0.54
  WS02006247WS02006245        1.74      1.74      1.74      2.19         1.74
  WS02006248WS02006247        1.73      1.73      1.74      0.01         0.01
  WS02006249WS02006248        1.73      1.73      1.73      2.15         0.01
  WS02006251WS02006249        1.73      1.73      1.73      1.75         1.71
  WS02006252WS02006251        1.77      1.77      1.77      1.77         0.01
  WS02006256WS02006235        2.44      2.45      3.44      1.76         0.01
  YS02001580YS02001583        0.65      0.65      0.71      0.01         0.01
  YS02001583YS02001586        0.66      0.66      0.80      0.01         0.01
  YS02001586YS02001590        0.81      0.81      0.88      0.01         0.01
  YS02001590YS02001593        0.88      0.88      0.90      0.95         0.01
  YS02001593YS02001596        0.89      0.89      0.99      0.01         0.01
  YS02001596YS02001600        1.03      1.03      1.14      0.01         0.01
  YS02001600YS02001601        1.20      1.20      1.57      0.01         0.01
  YS02001601YS02001602        1.40      1.40      1.60      1.13         0.01
  YS02001602YS02001605        1.34      1.34      1.40      2.17         0.01
  YS02001605YS02001607        1.29      1.34      1.29      1.50         1.29
  YS02001607YS02001610        0.87      0.87      0.90      0.01         0.01
  YS02001610YS02001613        0.87      0.87      0.90      0.01         0.01
  YS02001613YS02001616        0.83      0.83      0.87      0.01         0.01
  YS02001616YS02001619        0.81      0.81      0.83      0.01         0.02
  YS02001619YS02001622        0.81      0.81      0.81      0.86         0.75
  YS02001622YS02001625        0.81      0.81      0.99      0.01         0.01
  YS02001625YS02001629        0.76      0.76      0.99      0.01         0.01
  YS02001629YS02163301        1.00      1.00      1.01      0.01         0.10
  YS02001633YS02163601        1.02      1.02      1.06      0.32         0.30
  YS02001641YS02001644        0.97      0.99      0.97      1.62         0.95
  YS02001644YS02001647        0.77      0.77      0.97      0.03         0.01
  YS02001647YS02001649        0.77      0.77      0.91      0.01         0.01
  YS02001649YS02001757        0.91      0.91      0.99      0.04         0.03
  YS02001652YS02001649        0.72      0.72      0.91      0.01         0.01
  YS02001655YS02001652        0.49      0.49      0.69      0.01         0.01
  YS02001658YS02001655        0.23      0.23      0.49      0.01         0.01
  YS02001661YS02001658        0.02      0.02      0.23      0.01         0.01
  YS02001664YS02001661        0.01      0.01      0.07      0.01         0.01
  YS02001745YS02001748        0.01      0.01      0.17      0.01         0.01
  YS02001748YS02001751        0.21      0.21      0.33      0.01         0.01
  YS02001751YS02001754        0.33      0.33      0.58      0.01         0.01
  YS02001754YS02001757        0.63      0.63      0.99      0.01         0.01
  YS02001757CaochengTiaoxuchi        0.98      0.99      1.49      0.35         0.33
  YS02001759YS02001757        0.88      0.88      0.99      0.01         0.02
  YS02001762YS02001759        0.84      0.84      0.88      0.01         0.02
  YS02001765YS02001762        0.80      0.80      0.84      0.01         0.01
  YS02001767YS02001765        0.76      0.76      0.80      0.01         0.02
  YS02001770YS02001767        0.75      0.75      0.76      0.53         0.50
  YS02001774YS02001770        0.72      0.72      0.83      0.01         0.01
  YS02001779YS02001774        0.56      0.56      0.83      0.01         0.01
  YS02001783YS02001784        0.51      0.53      0.51      0.66         0.51
  YS02001784YS02001785        0.41      0.51      0.41      0.89         0.41
  YS02001786YS02001788        0.01      0.41      0.01      0.76         0.01
  YS02001790YS02001791        0.01      0.01      0.01      0.50         0.01
  YS02001793JiankangQianchi        0.01      0.01      7.99      0.01         0.01
  YS02001882YS02001884        0.48      0.48      0.49      0.01         0.01
  YS02001884YS02001887        0.51      0.51      0.52      0.01         0.01
  YS02001887YS02001890        0.54      0.54      0.55      0.13         0.01
  YS02001890YS02001895        0.47      0.47      0.56      0.01         0.01
  YS02001895YS02001898        0.46      0.46      0.47      0.01         0.01
  YS02001898YS02001901        0.47      0.47      0.51      0.01         0.01
  YS02001901YS02001904        0.50      0.50      0.51      0.01         0.01
  YS02001904YS02001907        0.50      0.50      0.73      0.01         0.01
  YS02001907YS02006553        0.91      0.91      0.98      0.01         0.01
  YS02001910YS02001907        0.56      0.56      0.72      0.01         0.01
  YS02001915YS02001910        0.48      0.48      0.56      0.01         0.01
  YS02001918YS02001915        0.39      0.39      0.48      0.01         0.01
  YS02001920YS02001918        0.39      0.39      0.41      0.01         0.01
  YS02001923YS02001920        0.35      0.35      0.41      0.01         0.01
  YS02001926YS02001923        0.08      0.08      0.11      0.01         0.01
  YS02001929YS02001926        0.01      0.01      0.11      0.01         0.01
  YS02006553YS02006556        0.63      0.63      0.73      0.01         0.01
  YS02006556YS02006558        0.68      0.68      0.76      0.01         0.01
  YS02006558YS02006561        0.43      0.63      0.43      0.84         0.43
  YS02006561YS02001783        0.37      0.37      0.53      0.01         0.01
  YS02163301YS02001633        1.01      1.01      1.04      0.01         0.01
  YS02163601YS02164001        0.99      0.99      1.06      0.03         0.01
  YS02164001YS02001641        0.99      0.99      0.99      0.73         0.70
  
  
  ***************
  Pumping Summary
  ***************
  
  ---------------------------------------------------------------------------------------------------------
                                                  Min       Avg       Max     Total     Power    % Time Off
                        Percent   Number of      Flow      Flow      Flow    Volume     Usage    Pump Curve
  Pump                 Utilized   Start-Ups       LPS       LPS       LPS  10^6 ltr     Kw-hr    Low   High
  ---------------------------------------------------------------------------------------------------------
  CC-R1                   21.45           7      0.00    683.00    683.00     4.219     79.07    0.0   16.4
  CC-R2                   20.50           7      0.00    683.00    683.00     4.032     75.60    0.0   17.2
  CC-S1                   27.36           8      0.00    200.00    200.00     1.576      8.89    0.0    0.0
  CC-S2                   22.13           7      0.00    200.00    200.00     1.274      7.01    0.0    0.0
  JK-R1                    7.55          93      0.00   1000.00   1000.00     2.174     28.64    0.0    0.0
  JK-R2                    0.00           0      0.00      0.00      0.00     0.000      0.00    0.0    0.0
  JK-S                    21.87           5      0.00    300.00    300.00     1.889     25.28    0.0    0.0
  

  Analysis begun on:  Thu Sep  7 10:11:34 2023
  Analysis ended on:  Thu Sep  7 10:12:10 2023
  Total elapsed time: 00:00:36