
  OWA STORM WATER MANAGEMENT MODEL - VERSION v5.1.14 (OWA 2022-07-31)
  --------------------------------------------------------------

  WARNING 04: minimum elevation drop used for Conduit WS02004404WS02004405
  WARNING 03: negative offset ignored for Link YS02001904YS02001907
  
  *********************************************************
  NOTE: The summary statistics displayed in this report are
  based on results found at every computational time step,  
  not just on results from each reporting time step.
  *********************************************************
  
  ****************
  Analysis Options
  ****************
  Flow Units ............... LPS
  Process Models:
    Rainfall/Runoff ........ YES
    RDII ................... NO
    Snowmelt ............... NO
    Groundwater ............ NO
    Flow Routing ........... YES
    Ponding Allowed ........ NO
    Water Quality .......... NO
  Infiltration Method ...... HORTON
  Flow Routing Method ...... DYNWAVE
  Surcharge Method ......... EXTRAN
  Starting Date ............ 08/28/2015 08:00:00
  Ending Date .............. 08/28/2015 16:00:00
  Antecedent Dry Days ...... 8.0
  Report Time Step ......... 00:01:00
  Wet Time Step ............ 00:01:00
  Dry Time Step ............ 00:01:00
  Routing Time Step ........ 30.00 sec
  Variable Time Step ....... YES
  Maximum Trials ........... 8
  Number of Threads ........ 4
  Head Tolerance ........... 0.001500 m
  
  
  **************************        Volume         Depth
  Runoff Quantity Continuity     hectare-m            mm
  **************************     ---------       -------
  Initial LID Storage ......         0.049         1.488
  Total Precipitation ......         7.899       238.151
  Evaporation Loss .........         0.000         0.000
  Infiltration Loss ........         0.085         2.560
  Surface Runoff ...........         6.857       206.725
  Final Storage ............         1.008        30.398
  Continuity Error (%) .....        -0.019
  
  
  **************************        Volume        Volume
  Flow Routing Continuity        hectare-m      10^6 ltr
  **************************     ---------     ---------
  Dry Weather Inflow .......         0.025         0.251
  Wet Weather Inflow .......         6.857        68.569
  Groundwater Inflow .......         0.000         0.000
  RDII Inflow ..............         0.000         0.000
  External Inflow ..........         0.083         0.834
  External Outflow .........         2.294        22.943
  Flooding Loss ............         4.726        47.262
  Evaporation Loss .........         0.000         0.000
  Exfiltration Loss ........         0.000         0.000
  Initial Stored Volume ....         0.243         2.431
  Final Stored Volume ......         0.214         2.136
  Continuity Error (%) .....        -0.355
  
  
  *************************
  Highest Continuity Errors
  *************************
  Node YS02001884 (4.35%)
  Node YS02001583 (-2.16%)
  
  
  ***************************
  Time-Step Critical Elements
  ***************************
  Link WS02004404WS02004405 (30.56%)
  Link YS02001791YS02001793 (23.23%)
  Link WS02006252WS02006251 (16.18%)
  Link WS02006235WS02006234 (8.27%)
  Link WS02003066WSF200 (5.04%)
  
  
  ********************************
  Highest Flow Instability Indexes
  ********************************
  Link WS02006238WS02006235 (38)
  Link WS02006113WS02006111 (37)
  Link WS02006252WS02006251 (32)
  Link WS02006111WS02006112 (31)
  Link YS02001602YS02001605 (30)
  
  
  *************************
  Routing Time Step Summary
  *************************
  Minimum Time Step           :     0.02 sec
  Average Time Step           :     2.91 sec
  Maximum Time Step           :    30.00 sec
  Percent in Steady State     :     0.00
  Average Iterations per Step :     3.84
  Percent Not Converging      :    19.56
  
  
  ***************************
  Subcatchment Runoff Summary
  ***************************
  
  ------------------------------------------------------------------------------------------------------------------------------
                            Total      Total      Total      Total     Imperv       Perv      Total       Total     Peak  Runoff
                           Precip      Runon       Evap      Infil     Runoff     Runoff     Runoff      Runoff   Runoff   Coeff
  Subcatchment                 mm         mm         mm         mm         mm         mm         mm    10^6 ltr      LPS
  ------------------------------------------------------------------------------------------------------------------------------
  sub60                    238.15       0.00       0.00       1.48     160.84      20.58     205.34        2.70  2062.90   0.862
  sub61                    238.15       0.00       0.00       2.28     160.69      30.82     210.64        3.87  2864.33   0.884
  sub62                    238.15       0.00       0.00       1.00     171.35      13.98     207.71        5.69  4197.74   0.872
  sub63                    238.15       0.00       0.00       4.23     137.64      52.31     208.97        4.74  3439.42   0.877
  sub64                    238.15       0.00       0.00       2.02     156.78      25.81     205.76        4.94  3606.88   0.864
  sub65                    238.15       0.00       0.00       1.86     169.25      23.59     211.53        5.82  4083.83   0.888
  sub66                    238.15       0.00       0.00       5.03     133.25      49.73     204.69        9.54  6323.56   0.859
  sub67                    238.15       0.00       0.00       0.99     175.62      14.37     210.32        3.91  2981.47   0.883
  sub68                    238.15       0.00       0.00       1.75     155.13      23.65     203.75        5.61  4252.61   0.856
  sub69                    238.15       0.00       0.00       1.66     160.34      26.65     208.75        7.73  5478.46   0.877
  sub70                    238.15       0.00       0.00       5.73     128.58      60.56     208.15        6.01  3686.17   0.874
  sub71                    238.15       0.00       0.00       0.93     155.70      12.69     198.28        5.19  3928.13   0.833
  sub72                    238.15       0.00       0.00       0.89     168.28      11.85     204.83        2.82  2003.07   0.860
  

  ***********************
  LID Performance Summary
  ***********************

  --------------------------------------------------------------------------------------------------------------------
                                         Total      Evap     Infil   Surface    Drain    Initial     Final  Continuity
                                        Inflow      Loss      Loss   Outflow   Outflow   Storage   Storage       Error
  Subcatchment      LID Control             mm        mm        mm        mm        mm        mm        mm           %
  --------------------------------------------------------------------------------------------------------------------
  sub60             GreenRoof           238.15      0.00      0.00    104.78      0.00      7.05    140.42        0.00
  sub61             GreenRoof           238.15      0.00      0.00    104.78      0.00      7.05    140.42        0.00
  sub62             GreenRoof           238.15      0.00      0.00    104.78      0.00      7.05    140.42        0.00
  sub63             GreenRoof           238.15      0.00      0.00    104.78      0.00      7.05    140.42        0.00
  sub64             GreenRoof           238.15      0.00      0.00    104.78      0.00      7.05    140.42        0.00
  sub65             GreenRoof           238.15      0.00      0.00    104.78      0.00      7.05    140.42        0.00
  sub66             GreenRoof           238.15      0.00      0.00    104.78      0.00      7.05    140.42        0.00
  sub67             GreenRoof           238.15      0.00      0.00    104.78      0.00      7.05    140.42        0.00
  sub68             GreenRoof           238.15      0.00      0.00    104.78      0.00      7.05    140.42        0.00
  sub69             GreenRoof           238.15      0.00      0.00    104.78      0.00      7.05    140.42        0.00
  sub70             GreenRoof           238.15      0.00      0.00    104.78      0.00      7.05    140.42        0.00
  sub71             GreenRoof           238.15      0.00      0.00    104.78      0.00      7.05    140.42        0.00
  sub72             GreenRoof           238.15      0.00      0.00    104.78      0.00      7.05    140.42        0.00
  
  ******************
  Node Depth Summary
  ******************
  
  ---------------------------------------------------------------------------------
                                 Average  Maximum  Maximum  Time of Max    Reported
                                   Depth    Depth      HGL   Occurrence   Max Depth
  Node                 Type       Meters   Meters   Meters  days hr:min      Meters
  ---------------------------------------------------------------------------------
  WS02003060           JUNCTION     0.23     0.38     5.32     0  02:16        0.38
  WS02003066           JUNCTION     0.19     0.30     5.85     0  03:12        0.30
  WS02003067           JUNCTION     0.51     0.70     6.02     0  03:12        0.70
  WS02003069           JUNCTION     0.26     0.43     5.01     0  02:19        0.43
  WS02003072           JUNCTION     0.32     0.50     4.87     0  02:30        0.50
  WS02003073           JUNCTION     0.18     0.30     4.36     0  02:31        0.30
  WS02004401           JUNCTION     0.61     0.85     6.85     0  03:09        0.85
  WS02004402           JUNCTION     0.64     0.88     6.84     0  03:10        0.88
  WS02004403           JUNCTION     0.66     0.89     6.82     0  03:10        0.89
  WS02004404           JUNCTION     0.74     0.96     6.81     0  03:10        0.96
  WS02004405           JUNCTION     0.74     0.96     6.81     0  03:10        0.96
  WS02004406           JUNCTION     0.75     0.96     6.79     0  03:10        0.96
  WS02004407           JUNCTION     0.18     0.30     6.61     0  03:10        0.30
  WS02004409           JUNCTION     0.40     0.67     6.44     0  03:11        0.67
  WS02004410           JUNCTION     0.42     0.68     6.40     0  03:11        0.68
  WS02004411           JUNCTION     0.45     0.69     6.37     0  03:11        0.69
  WS02004412           JUNCTION     0.47     0.70     6.34     0  03:11        0.70
  WS02004413           JUNCTION     0.63     0.86     6.33     0  03:12        0.86
  WS02006109           JUNCTION     0.68     1.10     7.72     0  02:55        1.07
  WS02006110           JUNCTION     0.67     1.11     7.70     0  02:55        1.00
  WS02006111           JUNCTION     0.18     0.90     7.60     0  00:00        0.40
  WS02006112           JUNCTION     0.77     2.68     8.56     0  00:00        1.14
  WS02006113           JUNCTION     0.28     1.40     8.29     0  00:00        0.46
  WS02006115           JUNCTION     0.49     1.65     7.79     0  00:00        0.86
  WS02006116           JUNCTION     0.58     1.06     7.10     0  00:00        0.83
  WS02006228           JUNCTION     0.68     1.18     7.83     0  02:55        1.10
  WS02006229           JUNCTION     0.65     1.21     7.91     0  02:55        1.08
  WS02006230           JUNCTION     0.67     1.41     8.16     0  02:55        1.22
  WS02006231           JUNCTION     0.46     1.17     8.29     0  03:24        0.98
  WS02006232           JUNCTION     0.60     1.28     8.32     0  03:24        1.18
  WS02006234           JUNCTION     0.55     1.22     8.38     0  03:26        1.20
  WS02006235           JUNCTION     0.60     1.41     8.58     0  03:23        1.29
  WS02006238           JUNCTION     0.62     1.46     8.60     0  03:23        1.33
  WS02006239           JUNCTION     0.60     1.65     8.86     0  01:28        1.42
  WS02006240           JUNCTION     0.58     1.62     8.92     0  01:28        1.44
  WS02006242           JUNCTION     0.65     1.51     8.78     0  02:55        1.51
  WS02006243           JUNCTION     0.58     1.36     8.78     0  02:55        1.36
  WS02006245           JUNCTION     0.58     1.28     8.76     0  02:55        1.28
  WS02006247           JUNCTION     0.59     1.24     8.74     0  02:55        1.24
  WS02006248           JUNCTION     0.56     1.10     8.69     0  01:29        1.10
  WS02006249           JUNCTION     0.59     1.09     8.69     0  01:28        1.09
  WS02006251           JUNCTION     0.59     1.98     9.65     0  01:29        1.23
  WS02006252           JUNCTION     0.38     1.50     9.74     0  01:26        0.92
  WS02006256           JUNCTION     1.25     2.35     9.28     0  01:20        2.35
  WSF200               JUNCTION     0.17     0.29     5.52     0  02:15        0.29
  YS02001580           JUNCTION     0.23     0.87     9.41     0  02:00        0.87
  YS02001583           JUNCTION     0.26     0.88     9.38     0  01:34        0.82
  YS02001586           JUNCTION     0.40     1.13     9.30     0  01:34        1.13
  YS02001590           JUNCTION     0.54     1.38     9.24     0  01:34        1.37
  YS02001593           JUNCTION     0.47     1.31     9.17     0  01:34        1.29
  YS02001596           JUNCTION     0.64     1.67     9.09     0  01:52        1.67
  YS02001600           JUNCTION     0.76     1.87     9.00     0  02:01        1.87
  YS02001601           JUNCTION     0.97     2.06     8.90     0  01:33        2.06
  YS02001602           JUNCTION     0.85     1.87     8.77     0  01:39        1.87
  YS02001605           JUNCTION     0.79     1.78     8.68     0  01:44        1.78
  YS02001607           JUNCTION     0.73     1.66     8.50     0  01:52        1.66
  YS02001610           JUNCTION     0.78     1.68     8.48     0  01:41        1.68
  YS02001613           JUNCTION     0.74     1.67     8.51     0  02:12        1.67
  YS02001616           JUNCTION     0.67     1.61     8.52     0  01:42        1.61
  YS02001619           JUNCTION     0.65     1.61     8.54     0  01:42        1.61
  YS02001622           JUNCTION     0.63     1.60     8.50     0  02:00        1.60
  YS02001625           JUNCTION     0.88     1.78     8.38     0  01:41        1.78
  YS02001629           JUNCTION     0.81     1.85     8.40     0  01:42        1.85
  YS02001633           JUNCTION     0.90     2.08     8.53     0  01:42        2.08
  YS02001641           JUNCTION     0.86     2.10     8.54     0  01:42        2.10
  YS02001644           JUNCTION     0.86     1.92     8.35     0  01:42        1.92
  YS02001647           JUNCTION     0.64     1.90     8.51     0  02:11        1.90
  YS02001649           JUNCTION     0.74     2.05     8.44     0  02:01        2.05
  YS02001652           JUNCTION     0.62     2.15     8.75     0  02:22        2.14
  YS02001655           JUNCTION     0.51     2.20     9.05     0  02:20        2.20
  YS02001658           JUNCTION     0.41     2.30     9.44     0  01:48        2.30
  YS02001661           JUNCTION     0.38     2.45     9.85     0  02:22        2.45
  YS02001664           JUNCTION     0.20     2.31    10.23     0  02:22        2.31
  YS02001745           JUNCTION     0.24     1.99     9.50     0  02:22        1.99
  YS02001748           JUNCTION     0.39     2.12     9.20     0  02:22        2.12
  YS02001751           JUNCTION     0.46     2.08     8.96     0  02:24        2.08
  YS02001754           JUNCTION     0.57     2.12     8.73     0  02:22        2.12
  YS02001757           JUNCTION     0.78     2.21     8.47     0  02:22        2.21
  YS02001759           JUNCTION     0.72     2.21     8.57     0  02:21        2.21
  YS02001762           JUNCTION     0.71     2.15     8.55     0  02:21        2.15
  YS02001765           JUNCTION     0.68     2.09     8.54     0  02:22        2.09
  YS02001767           JUNCTION     0.67     2.02     8.50     0  02:23        2.02
  YS02001770           JUNCTION     0.68     1.95     8.44     0  02:00        1.95
  YS02001774           JUNCTION     0.74     2.01     8.43     0  02:12        2.01
  YS02001779           JUNCTION     0.54     1.68     8.37     0  01:59        1.68
  YS02001783           JUNCTION     0.44     1.50     7.65     0  02:22        1.50
  YS02001784           JUNCTION     0.43     1.33     7.40     0  02:22        1.33
  YS02001786           JUNCTION     0.35     1.00     7.03     0  02:25        0.98
  YS02001788           JUNCTION     0.25     0.70     6.67     0  02:26        0.68
  YS02001790           JUNCTION     0.29     0.79     6.43     0  02:26        0.75
  YS02001791           JUNCTION     0.18     0.47     5.94     0  02:26        0.45
  YS02001793           JUNCTION     0.10     0.38     5.22     0  02:26        0.35
  YS02001882           JUNCTION     0.56     1.83     8.55     0  02:21        1.83
  YS02001884           JUNCTION     0.65     1.93     8.55     0  02:22        1.93
  YS02001887           JUNCTION     0.73     2.00     8.54     0  02:11        2.00
  YS02001890           JUNCTION     0.75     1.81     8.32     0  01:51        1.81
  YS02001895           JUNCTION     0.51     1.59     8.34     0  01:52        1.59
  YS02001898           JUNCTION     0.52     1.58     8.32     0  02:01        1.58
  YS02001901           JUNCTION     0.63     1.69     8.30     0  01:52        1.69
  YS02001904           JUNCTION     0.61     1.66     8.29     0  01:52        1.66
  YS02001907           JUNCTION     0.93     1.96     8.25     0  01:49        1.96
  YS02001910           JUNCTION     0.75     2.02     8.52     0  02:15        2.02
  YS02001915           JUNCTION     0.58     2.00     8.72     0  02:11        2.00
  YS02001918           JUNCTION     0.39     1.81     8.88     0  02:18        1.81
  YS02001920           JUNCTION     0.47     2.04     9.05     0  02:22        2.04
  YS02001923           JUNCTION     0.33     1.95     9.21     0  02:22        1.95
  YS02001926           JUNCTION     0.34     1.90     9.34     0  02:22        1.90
  YS02001929           JUNCTION     0.24     1.78     9.47     0  02:22        1.78
  YS02006553           JUNCTION     0.94     2.13     8.42     0  02:23        2.13
  YS02006556           JUNCTION     0.91     2.35     8.66     0  02:22        2.35
  YS02006558           JUNCTION     0.96     2.50     8.77     0  02:22        2.50
  YS02006561           JUNCTION     0.29     1.22     7.88     0  02:22        1.22
  YS02163301           JUNCTION     0.84     2.02     8.54     0  01:42        2.02
  YS02163601           JUNCTION     0.93     2.08     8.48     0  01:42        2.08
  YS02164001           JUNCTION     0.85     2.10     8.56     0  01:42        2.10
  CC-1                 OUTFALL      0.00     0.00     0.00     0  00:00        0.00
  CC-2                 OUTFALL      0.00     0.00     0.00     0  00:00        0.00
  JK-1                 OUTFALL      0.00     0.00     0.00     0  00:00        0.00
  JK-2                 OUTFALL      0.00     0.00     0.00     0  00:00        0.00
  WSC                  OUTFALL      0.18     0.30     0.97     0  02:31        0.30
  CC-storage           STORAGE      1.20     2.28     7.78     0  02:49        2.28
  JK-storage           STORAGE      2.97     4.25     5.05     0  02:04        4.24
  
  
  *******************
  Node Inflow Summary
  *******************
  
  -------------------------------------------------------------------------------------------------
                                  Maximum  Maximum                  Lateral       Total        Flow
                                  Lateral    Total  Time of Max      Inflow      Inflow     Balance
                                   Inflow   Inflow   Occurrence      Volume      Volume       Error
  Node                 Type           LPS      LPS  days hr:min    10^6 ltr    10^6 ltr     Percent
  -------------------------------------------------------------------------------------------------
  WS02003060           JUNCTION     16.53   553.12     0  02:15       0.476        5.87       0.036
  WS02003066           JUNCTION      0.00   536.50     0  03:12           0        5.39       0.023
  WS02003067           JUNCTION      0.00   536.49     0  03:12           0         5.4       0.074
  WS02003069           JUNCTION      0.32   553.36     0  02:16     0.00922        5.88       0.058
  WS02003072           JUNCTION      0.00   553.28     0  02:19           0        5.87       0.106
  WS02003073           JUNCTION      1.82   555.09     0  02:30      0.0524        5.92       0.084
  WS02004401           JUNCTION      0.00  1677.78     0  00:00           0         5.5       0.200
  WS02004402           JUNCTION      0.00  1171.33     0  00:01           0        5.49       0.197
  WS02004403           JUNCTION      0.00   884.75     0  00:01           0        5.48       0.193
  WS02004404           JUNCTION      0.16   832.59     0  00:01     0.00467        5.47       0.154
  WS02004405           JUNCTION      0.04   776.49     0  00:01      0.0011        5.46       0.229
  WS02004406           JUNCTION      0.00   711.76     0  00:02           0        5.45       0.390
  WS02004407           JUNCTION      0.00   537.66     0  03:10           0        5.43       0.016
  WS02004409           JUNCTION      0.00   537.38     0  03:10           0        5.43       0.040
  WS02004410           JUNCTION      0.00   537.02     0  03:11           0        5.43       0.073
  WS02004411           JUNCTION      0.00   536.86     0  03:11           0        5.42       0.097
  WS02004412           JUNCTION      0.00   536.73     0  03:11           0        5.42       0.127
  WS02004413           JUNCTION      0.00   536.63     0  03:11           0        5.41       0.236
  WS02006109           JUNCTION      1.23  1308.01     0  00:00      0.0354        5.43       0.181
  WS02006110           JUNCTION      0.00   554.95     0  02:55           0         5.4      -0.679
  WS02006111           JUNCTION      0.00  1176.04     0  00:00           0        5.43      -0.713
  WS02006112           JUNCTION      0.00  2307.30     0  00:00           0        5.47      -0.019
  WS02006113           JUNCTION      0.00   564.83     0  01:47           0        5.39      -0.921
  WS02006115           JUNCTION      0.00   899.27     0  00:00           0        5.44      -0.599
  WS02006116           JUNCTION      0.00  1098.16     0  00:01           0        5.48      -0.430
  WS02006228           JUNCTION      0.00   552.24     0  01:47           0        5.38       0.090
  WS02006229           JUNCTION      0.00   551.93     0  01:47           0        5.36       0.123
  WS02006230           JUNCTION     10.28   594.90     0  03:27       0.296        5.34       0.017
  WS02006231           JUNCTION      0.00   576.48     0  02:55           0        5.04      -0.026
  WS02006232           JUNCTION      0.00   575.40     0  02:55           0        5.04       0.083
  WS02006234           JUNCTION      0.00   571.53     0  02:55           0        5.03      -0.055
  WS02006235           JUNCTION      0.00   561.62     0  02:55           0        5.04       0.024
  WS02006238           JUNCTION      0.00   432.91     0  03:24           0        3.62      -0.025
  WS02006239           JUNCTION      0.00   440.44     0  03:24           0        3.62      -0.046
  WS02006240           JUNCTION      0.00   428.34     0  03:27           0        3.62      -0.007
  WS02006242           JUNCTION      0.00   428.63     0  03:24           0        3.62       0.040
  WS02006243           JUNCTION      0.00   429.26     0  03:25           0        3.62      -0.021
  WS02006245           JUNCTION      0.00   430.22     0  03:25           0        3.62       0.098
  WS02006247           JUNCTION      0.00   430.71     0  03:25           0        3.62       0.020
  WS02006248           JUNCTION      0.00   429.86     0  03:24           0        3.62       0.000
  WS02006249           JUNCTION      0.00   430.96     0  03:24           0        4.08       0.045
  WS02006251           JUNCTION      0.08   409.01     0  01:29     0.00222        4.08      -0.004
  WS02006252           JUNCTION      0.00   400.00     0  01:26           0        4.08      -0.082
  WS02006256           JUNCTION      0.00   300.00     0  01:20           0        2.15      -0.147
  WSF200               JUNCTION      0.00   536.52     0  03:12           0        5.39       0.005
  YS02001580           JUNCTION      0.00    45.53     0  01:33           0      0.0043      -0.725
  YS02001583           JUNCTION      0.00    76.89     0  01:33           0      0.0164      -2.116
  YS02001586           JUNCTION   3686.17  3686.17     0  02:25        6.01        6.03       0.017
  YS02001590           JUNCTION      0.00   319.93     0  02:00           0        2.19      -0.024
  YS02001593           JUNCTION      0.00   319.65     0  02:00           0        2.19       0.007
  YS02001596           JUNCTION      0.00   318.23     0  01:52           0        2.19      -0.008
  YS02001600           JUNCTION      0.00   318.16     0  02:00           0        2.19       0.003
  YS02001601           JUNCTION   5478.46  5796.31     0  02:25        7.73        9.92       0.009
  YS02001602           JUNCTION      0.00   499.38     0  01:33           0        3.21       0.011
  YS02001605           JUNCTION      0.00   498.57     0  01:33           0         2.9       0.018
  YS02001607           JUNCTION      0.00   498.42     0  01:33           0         2.9       0.064
  YS02001610           JUNCTION      0.00   955.64     0  02:20           0        4.35       0.058
  YS02001613           JUNCTION      0.00   619.08     0  02:26           0        3.02       0.049
  YS02001616           JUNCTION      0.00   619.32     0  02:26           0        3.02       0.015
  YS02001619           JUNCTION   6323.56  6323.56     0  02:25        9.54        11.1       0.001
  YS02001622           JUNCTION      0.00  1054.01     0  02:27           0        6.57      -0.001
  YS02001625           JUNCTION      0.00  1505.51     0  02:22           0        7.68       0.156
  YS02001629           JUNCTION      0.00  1139.05     0  02:27           0        4.65      -0.017
  YS02001633           JUNCTION   4084.03  4084.03     0  02:25        5.83        8.59       0.034
  YS02001641           JUNCTION      0.00  1183.01     0  01:39           0        5.91       0.046
  YS02001644           JUNCTION   3606.92  5359.77     0  02:25        4.94        11.9       0.025
  YS02001647           JUNCTION      0.00  1453.52     0  01:39           0        6.64      -0.004
  YS02001649           JUNCTION      0.00  3234.34     0  02:25           0        10.4      -0.004
  YS02001652           JUNCTION      0.00  2429.33     0  02:25           0        4.53      -0.030
  YS02001655           JUNCTION      0.15  2731.44     0  02:26     0.00443        4.63       0.031
  YS02001658           JUNCTION      0.00  2783.85     0  02:24           0        4.64      -0.097
  YS02001661           JUNCTION      0.00  2783.81     0  02:26           0        4.64      -0.058
  YS02001664           JUNCTION   3439.42  3439.42     0  02:25        4.74        4.74       0.004
  YS02001745           JUNCTION   2062.90  2062.90     0  02:24         2.7         2.7       0.030
  YS02001748           JUNCTION      0.04  2064.16     0  02:24      0.0013         2.7      -0.075
  YS02001751           JUNCTION      0.01  2066.72     0  02:24    0.000317         2.7       0.013
  YS02001754           JUNCTION      0.26  2068.99     0  02:24     0.00749        2.71      -0.057
  YS02001757           JUNCTION      0.00  3478.42     0  02:24           0          16       0.010
  YS02001759           JUNCTION   2864.37  2864.37     0  02:24        3.87        5.87      -0.010
  YS02001762           JUNCTION      0.00   721.98     0  02:26           0        2.51      -0.008
  YS02001765           JUNCTION      0.00   721.73     0  02:26           0        2.51      -0.006
  YS02001767           JUNCTION      0.54   722.53     0  02:26      0.0154        2.51      -0.005
  YS02001770           JUNCTION   4197.89  4918.64     0  02:25         5.7        6.25      -0.011
  YS02001774           JUNCTION      0.00   852.15     0  02:20           0        1.72       0.046
  YS02001779           JUNCTION      0.01   851.81     0  02:28    0.000144        1.67       0.001
  YS02001783           JUNCTION      0.00  1321.68     0  02:23           0        6.97       0.003
  YS02001784           JUNCTION      1.06  1322.48     0  02:24      0.0305           7       0.007
  YS02001786           JUNCTION      0.06  1322.63     0  02:24     0.00162        7.01       0.009
  YS02001788           JUNCTION      0.07  1322.65     0  02:23     0.00204        7.01       0.004
  YS02001790           JUNCTION      0.15  1349.61     0  02:26     0.00446        7.01       0.036
  YS02001791           JUNCTION      0.00  1417.93     0  02:26           0        7.01      -0.055
  YS02001793           JUNCTION      0.00  1446.55     0  02:26           0        7.01       0.001
  YS02001882           JUNCTION      0.00    31.03     0  01:26           0      0.0164       3.586
  YS02001884           JUNCTION      0.00    40.37     0  01:17           0       0.053       4.543
  YS02001887           JUNCTION   2981.92  2981.92     0  02:24        3.92        3.96       0.109
  YS02001890           JUNCTION      0.00  2052.03     0  02:27           0        3.72       0.140
  YS02001895           JUNCTION      0.00   518.49     0  02:12           0        2.27       0.089
  YS02001898           JUNCTION      0.00   519.13     0  02:23           0        2.26      -0.008
  YS02001901           JUNCTION      0.00   518.94     0  02:24           0        2.27       0.148
  YS02001904           JUNCTION      0.00   518.71     0  02:16           0        2.28       0.120
  YS02001907           JUNCTION      0.00  4671.46     0  02:24           0        9.83       0.187
  YS02001910           JUNCTION      0.00  1993.23     0  02:20           0        6.06       0.118
  YS02001915           JUNCTION   3928.15  5149.84     0  02:25        5.19        7.85       0.021
  YS02001918           JUNCTION      0.00  1681.50     0  02:26           0        2.85       0.002
  YS02001920           JUNCTION      2.87  1681.98     0  02:26      0.0827        2.85       0.036
  YS02001923           JUNCTION      0.04  1679.08     0  02:26     0.00109        2.77      -0.009
  YS02001926           JUNCTION      0.05  1678.60     0  02:26      0.0015        2.77       0.008
  YS02001929           JUNCTION   2003.07  2003.07     0  02:25        2.82        2.82      -0.002
  YS02006553           JUNCTION      0.00  2160.56     0  02:24           0         4.5       0.263
  YS02006556           JUNCTION      0.00  2160.62     0  02:25           0        4.51       0.182
  YS02006558           JUNCTION   4253.49  4253.49     0  02:24        5.63        8.62       0.041
  YS02006561           JUNCTION      0.00  1321.50     0  02:26           0        6.97      -0.000
  YS02163301           JUNCTION      0.00  1138.95     0  02:27           0        4.66       0.027
  YS02163601           JUNCTION      0.11  1182.69     0  01:39     0.00317         5.9       0.076
  YS02164001           JUNCTION      0.00  1182.71     0  01:39           0         5.9       0.025
  CC-1                 OUTFALL       0.00   683.00     0  01:34           0         6.3       0.000
  CC-2                 OUTFALL       0.00   683.00     0  01:43           0        5.91       0.000
  JK-1                 OUTFALL       0.00  1000.00     0  01:23           0        4.82       0.000
  JK-2                 OUTFALL       0.00     0.00     0  00:00           0           0       0.000 ltr
  WSC                  OUTFALL       0.00   555.07     0  02:31           0        5.91       0.000
  CC-storage           STORAGE       0.00  2697.12     0  02:01           0        17.9      -0.123
  JK-storage           STORAGE       0.00  1414.39     0  02:26           0        7.16       0.089
  
  
  **********************
  Node Surcharge Summary
  **********************
  
  Surcharging occurs when water rises above the top of the highest conduit.
  ---------------------------------------------------------------------
                                               Max. Height   Min. Depth
                                   Hours       Above Crown    Below Rim
  Node                 Type      Surcharged         Meters       Meters
  ---------------------------------------------------------------------
  WS02006109           JUNCTION        2.69          0.284        1.536
  WS02006110           JUNCTION        1.74          0.202        1.648
  WS02006111           JUNCTION        0.01          0.087        1.783
  WS02006112           JUNCTION        1.76          1.680        0.000
  WS02006113           JUNCTION        0.01          0.600        1.330
  WS02006115           JUNCTION        0.01          0.642        1.608
  WS02006116           JUNCTION        0.01          0.000        2.290
  WS02006228           JUNCTION        2.68          0.347        1.853
  WS02006229           JUNCTION        2.70          0.413        2.037
  WS02006230           JUNCTION        1.75          0.334        1.236
  WS02006231           JUNCTION        1.81          0.455        1.075
  WS02006232           JUNCTION        2.74          0.583        0.897
  WS02006234           JUNCTION        1.98          0.500        0.740
  WS02006235           JUNCTION        2.66          0.705        0.585
  WS02006238           JUNCTION        2.70          0.739        0.691
  WS02006239           JUNCTION        2.64          0.907        0.383
  WS02006240           JUNCTION        2.66          0.913        0.477
  WS02006242           JUNCTION        2.68          0.780        0.040
  WS02006243           JUNCTION        2.66          0.650        0.120
  WS02006245           JUNCTION        2.66          0.569        0.281
  WS02006247           JUNCTION        2.66          0.531        0.229
  WS02006248           JUNCTION        2.65          0.380        0.000
  WS02006249           JUNCTION        2.65          0.390        0.000
  WS02006251           JUNCTION        1.84          0.952        0.228
  WS02006252           JUNCTION        2.70          1.100        0.000
  WS02006256           JUNCTION        3.40          2.050        0.000
  YS02001580           JUNCTION        1.46          0.273        0.177
  YS02001583           JUNCTION        1.47          0.243        0.257
  YS02001586           JUNCTION        1.60          0.510        0.000
  YS02001590           JUNCTION        1.68          0.729        0.021
  YS02001593           JUNCTION        1.68          0.687        0.153
  YS02001596           JUNCTION        1.81          0.939        0.131
  YS02001600           JUNCTION        1.96          1.190        0.000
  YS02001601           JUNCTION        2.21          1.440        0.000
  YS02001602           JUNCTION        2.14          1.270        0.000
  YS02001605           JUNCTION        2.11          1.180        0.000
  YS02001607           JUNCTION        1.70          0.656        0.024
  YS02001610           JUNCTION        1.73          0.680        0.000
  YS02001613           JUNCTION        1.70          0.671        0.029
  YS02001616           JUNCTION        1.65          0.610        0.000
  YS02001619           JUNCTION        1.63          0.610        0.000
  YS02001622           JUNCTION        1.64          0.595        0.025
  YS02001625           JUNCTION        1.85          0.780        0.000
  YS02001629           JUNCTION        1.55          0.470        0.000
  YS02001633           JUNCTION        1.91          1.060        0.000
  YS02001641           JUNCTION        1.87          1.100        0.000
  YS02001644           JUNCTION        1.84          0.920        0.000
  YS02001647           JUNCTION        1.61          0.900        0.000
  YS02001649           JUNCTION        1.76          1.050        0.000
  YS02001652           JUNCTION        1.57          1.122        0.008
  YS02001655           JUNCTION        1.37          1.200        0.000
  YS02001658           JUNCTION        1.11          1.300        0.000
  YS02001661           JUNCTION        0.49          1.380        0.010
  YS02001664           JUNCTION        0.26          1.310        0.000
  YS02001745           JUNCTION        0.26          0.987        0.363
  YS02001748           JUNCTION        0.94          1.042        0.148
  YS02001751           JUNCTION        1.29          1.079        0.121
  YS02001754           JUNCTION        1.51          1.071        0.079
  YS02001757           JUNCTION        1.84          1.210        0.000
  YS02001759           JUNCTION        1.75          1.210        0.000
  YS02001762           JUNCTION        1.72          1.150        0.000
  YS02001765           JUNCTION        1.68          1.087        0.013
  YS02001767           JUNCTION        1.65          1.016        0.014
  YS02001770           JUNCTION        1.63          0.920        0.000
  YS02001774           JUNCTION        1.71          1.007        0.043
  YS02001779           JUNCTION        1.49          0.680        0.000
  YS02001783           JUNCTION        1.30          0.705        0.895
  YS02001784           JUNCTION        1.26          0.530        0.960
  YS02001786           JUNCTION        1.09          0.198        1.232
  YS02001882           JUNCTION        1.20          0.830        0.000
  YS02001884           JUNCTION        1.22          0.870        0.000
  YS02001887           JUNCTION        1.28          0.950        0.000
  YS02001890           JUNCTION        1.30          0.760        0.000
  YS02001895           JUNCTION        1.19          0.588        0.162
  YS02001898           JUNCTION        1.18          0.554        0.186
  YS02001901           JUNCTION        1.26          0.693        0.177
  YS02001904           JUNCTION        1.24          0.662        0.188
  YS02001907           JUNCTION        1.64          0.950        0.000
  YS02001910           JUNCTION        1.35          1.015        0.085
  YS02001915           JUNCTION        1.20          1.000        0.000
  YS02001918           JUNCTION        1.06          0.810        0.000
  YS02001920           JUNCTION        1.08          1.044        0.096
  YS02001923           JUNCTION        0.50          0.742        0.078
  YS02001926           JUNCTION        0.54          0.895        0.005
  YS02001929           JUNCTION        0.36          0.780        0.000
  YS02006553           JUNCTION        1.65          1.135        0.055
  YS02006556           JUNCTION        1.49          1.314        0.036
  YS02006558           JUNCTION        1.46          1.400        0.000
  YS02006561           JUNCTION        1.02          0.415        0.735
  YS02163301           JUNCTION        1.88          1.020        0.010
  YS02163601           JUNCTION        1.97          1.080        0.000
  YS02164001           JUNCTION        1.87          1.100        0.000
  
  
  *********************
  Node Flooding Summary
  *********************
  
  Flooding refers to all water that overflows a node, whether it ponds or not.
  --------------------------------------------------------------------------
                                                             Total   Maximum
                                 Maximum   Time of Max       Flood    Ponded
                        Hours       Rate    Occurrence      Volume     Depth
  Node                 Flooded       LPS   days hr:min    10^6 ltr    Meters
  --------------------------------------------------------------------------
  WS02006112              0.01   1547.89      0  00:00       0.047     0.000
  WS02006248              0.01      5.01      0  01:29       0.000     0.000
  WS02006249              1.82    126.00      0  01:28       0.458     0.000
  WS02006252              0.01     25.82      0  01:29       0.000     0.000
  WS02006256              1.99    285.22      0  03:28       0.734     0.000
  YS02001586              1.28   3366.89      0  02:25       3.819     0.000
  YS02001600              0.01      0.28      0  02:01       0.000     0.000
  YS02001601              1.53   5396.81      0  02:25       6.710     0.000
  YS02001602              1.43     62.46      0  02:00       0.309     0.000
  YS02001605              0.01      0.22      0  01:44       0.000     0.000
  YS02001610              1.35    955.31      0  02:27       2.774     0.000
  YS02001616              0.11      2.19      0  02:34       0.000     0.000
  YS02001619              0.48   4650.53      0  02:25       3.098     0.000
  YS02001625              1.37   1505.28      0  02:22       4.908     0.000
  YS02001629              0.53    686.86      0  02:27       0.781     0.000
  YS02001633              0.24   2039.19      0  02:25       0.791     0.000
  YS02001641              0.01      1.08      0  01:42       0.000     0.000
  YS02001644              0.90   5358.72      0  02:25       6.277     0.000
  YS02001647              0.01      0.70      0  02:11       0.000     0.000
  YS02001649              0.26   2387.40      0  02:25       1.364     0.000
  YS02001655              0.12    303.26      0  02:23       0.105     0.000
  YS02001658              0.08    287.52      0  01:48       0.015     0.000
  YS02001664              0.08    655.91      0  02:25       0.106     0.000
  YS02001757              0.06    214.17      0  02:24       0.024     0.000
  YS02001759              0.10    736.74      0  02:24       0.139     0.000
  YS02001762              0.04      2.08      0  02:23       0.000     0.000
  YS02001770              0.40   4066.85      0  02:25       2.564     0.000
  YS02001779              0.77    851.50      0  02:28       1.657     0.000
  YS02001882              0.01      0.53      0  02:26       0.000     0.000
  YS02001884              0.01      0.86      0  02:24       0.000     0.000
  YS02001887              0.12    928.82      0  02:24       0.198     0.000
  YS02001890              0.62   1536.74      0  02:27       1.448     0.000
  YS02001907              0.99   4670.94      0  02:24       6.814     0.000
  YS02001915              0.31   3157.47      0  02:25       1.782     0.000
  YS02001918              0.17    459.72      0  02:26       0.189     0.000
  YS02001929              0.08    324.60      0  02:25       0.049     0.000
  YS02006558              0.07    772.74      0  02:24       0.120     0.000
  YS02163601              0.01      1.68      0  01:52       0.000     0.000
  YS02164001              0.01      1.91      0  01:42       0.000     0.000
  
  
  **********************
  Storage Volume Summary
  **********************
  
  --------------------------------------------------------------------------------------------------
                         Average     Avg  Evap Exfil       Maximum     Max    Time of Max    Maximum
                          Volume    Pcnt  Pcnt  Pcnt        Volume    Pcnt     Occurrence    Outflow
  Storage Unit           1000 m3    Full  Loss  Loss       1000 m3    Full    days hr:min        LPS
  --------------------------------------------------------------------------------------------------
  CC-storage               3.342      52     0     0         6.343      99       0  02:49    1766.00
  JK-storage               0.149      51     0     0         0.213      73       0  02:04    1300.00
  
  
  ***********************
  Outfall Loading Summary
  ***********************
  
  -----------------------------------------------------------
                         Flow       Avg       Max       Total
                         Freq      Flow      Flow      Volume
  Outfall Node           Pcnt       LPS       LPS    10^6 ltr
  -----------------------------------------------------------
  CC-1                  46.16    683.00    683.00       6.299
  CC-2                  43.09    683.00    683.00       5.909
  JK-1                  26.32   1000.00   1000.00       4.821
  JK-2                   0.00      0.00      0.00       0.000
  WSC                   99.99    275.73    555.07       5.913
  -----------------------------------------------------------
  System                43.11   2641.73    555.07      22.942
  
  
  ********************
  Link Flow Summary
  ********************
  
  -----------------------------------------------------------------------------
                                 Maximum  Time of Max   Maximum    Max/    Max/
                                  |Flow|   Occurrence   |Veloc|    Full    Full
  Link                 Type          LPS  days hr:min     m/sec    Flow   Depth
  -----------------------------------------------------------------------------
  1                    CONDUIT    555.07     0  02:31      2.83    0.19    0.30
  WS02003060WS02003069 CONDUIT    553.04     0  02:16      1.64    0.22    0.34
  WS02003066WSF200     CONDUIT    536.52     0  03:12      2.85    0.09    0.22
  WS02003067WS02003066 CONDUIT    536.50     0  03:12      1.21    0.17    0.42
  WS02003069WS02003072 CONDUIT    553.28     0  02:19      1.37    0.27    0.39
  WS02003072WS02003073 CONDUIT    553.26     0  02:30      1.44    1.19    0.37
  WS02004401WS02004402 CONDUIT   1171.33     0  00:01      2.51    1.41    0.86
  WS02004402WS02004403 CONDUIT    884.75     0  00:01      2.16    1.27    0.88
  WS02004403WS02004404 CONDUIT    832.43     0  00:01      1.96    0.60    0.93
  WS02004404WS02004405 CONDUIT    776.45     0  00:01      2.26    7.61    0.96
  WS02004405WS02004406 CONDUIT    711.76     0  00:02      2.15    1.40    0.96
  WS02004406WS02004407 CONDUIT    537.66     0  03:10      1.04    0.24    0.63
  WS02004407WS02004409 CONDUIT    537.38     0  03:10      1.95    0.19    0.48
  WS02004409WS02004410 CONDUIT    537.02     0  03:11      1.31    0.69    0.67
  WS02004410WS02004411 CONDUIT    536.86     0  03:11      1.19    0.73    0.69
  WS02004411WS02004412 CONDUIT    536.73     0  03:11      1.07    0.76    0.69
  WS02004412WS02004413 CONDUIT    536.63     0  03:11      1.10    0.36    0.78
  WS02004413WS02003067 CONDUIT    536.49     0  03:12      1.11    0.23    0.59
  WS02006109WS02006110 CONDUIT   1306.78     0  00:00      3.14    2.51    1.00
  WS02006110WS02006113 CONDUIT    564.83     0  01:47      1.37    0.51    1.00
  WS02006111WS02006112 CONDUIT   2307.30     0  00:00      9.18    1.10    0.91
  WS02006112WS02006115 CONDUIT    899.27     0  00:00      1.16    0.53    1.00
  WS02006113WS02006111 CONDUIT   1176.04     0  00:00      2.46    1.41    1.00
  WS02006115WS02006116 CONDUIT   1098.16     0  00:01      1.72    1.41    1.00
  WS02006116WS02004401 CONDUIT   1677.78     0  00:00      2.92    2.31    0.84
  WS02006228WS02006109 CONDUIT    552.65     0  01:47      1.40    2.41    1.00
  WS02006229WS02006228 CONDUIT    552.24     0  01:47      1.24    1.83    1.00
  WS02006230WS02006229 CONDUIT    551.93     0  01:47      1.43   12.28    1.00
  WS02006231WS02006230 CONDUIT    584.62     0  03:27      1.59    8.87    1.00
  WS02006232WS02006231 CONDUIT    576.48     0  02:55      1.50    1.21    1.00
  WS02006234WS02006232 CONDUIT    575.40     0  02:55      1.50    1.16    1.00
  WS02006235WS02006234 CONDUIT    571.53     0  02:55      1.49    6.03    1.00
  WS02006238WS02006235 CONDUIT    437.75     0  03:24      1.14    0.98    1.00
  WS02006239WS02006238 CONDUIT    432.91     0  03:24      1.12    1.39    1.00
  WS02006240WS02006239 CONDUIT    440.44     0  03:24      1.15    1.39    1.00
  WS02006242WS02006240 CONDUIT    428.34     0  03:27      1.11    1.70    1.00
  WS02006243WS02006242 CONDUIT    428.63     0  03:24      1.11    0.92    1.00
  WS02006245WS02006243 CONDUIT    429.26     0  03:25      1.15    1.27    1.00
  WS02006247WS02006245 CONDUIT    430.22     0  03:25      1.12    3.41    1.00
  WS02006248WS02006247 CONDUIT    430.71     0  03:25      1.12    0.94    1.00
  WS02006249WS02006248 CONDUIT    429.86     0  03:24      1.21    2.35    1.00
  WS02006251WS02006249 CONDUIT    430.96     0  03:24      1.52    1.24    1.00
  WS02006252WS02006251 CONDUIT    408.94     0  01:29     16.69    1.50    1.00
  WS02006256WS02006235 CONDUIT    249.99     0  01:20      3.54    2.65    1.00
  WSF200WS02003060     CONDUIT    536.59     0  02:15      2.06    0.12    0.28
  YS02001580YS02001583 CONDUIT     45.53     0  01:33      0.42    0.18    1.00
  YS02001583YS02001586 CONDUIT     76.89     0  01:33      0.33    0.12    1.00
  YS02001586YS02001590 CONDUIT    319.93     0  02:00      1.24    0.56    1.00
  YS02001590YS02001593 CONDUIT    319.65     0  02:00      1.13    2.01    1.00
  YS02001593YS02001596 CONDUIT    318.23     0  01:52      1.69    0.50    1.00
  YS02001596YS02001600 CONDUIT    318.16     0  02:00      1.23    0.62    1.00
  YS02001600YS02001601 CONDUIT    318.18     0  02:16      1.13    0.55    1.00
  YS02001601YS02001602 CONDUIT    499.38     0  01:33      1.77    1.80    1.00
  YS02001602YS02001605 CONDUIT    498.57     0  01:33      1.76   10.55    1.00
  YS02001605YS02001607 CONDUIT    498.42     0  01:33      1.76    2.73    1.00
  YS02001607YS02001610 CONDUIT    496.62     0  01:33      0.63    0.47    1.00
  YS02001610YS02001613 CONDUIT    619.49     0  02:26      0.79    0.71    1.00
  YS02001613YS02001616 CONDUIT    619.08     0  02:26      0.79    0.53    1.00
  YS02001616YS02001619 CONDUIT    619.32     0  02:26      0.79    1.08    1.00
  YS02001619YS02001622 CONDUIT   1054.01     0  02:27      1.36    1.55    1.00
  YS02001622YS02001625 CONDUIT   1053.72     0  02:22      1.34    0.56    1.00
  YS02001625YS02001629 CONDUIT    876.43     0  01:38      1.12    0.42    1.00
  YS02001629YS02163301 CONDUIT   1139.05     0  02:27      1.45    1.40    1.00
  YS02001633YS02163601 CONDUIT   1182.58     0  01:39      1.51    1.24    1.00
  YS02001641YS02001644 CONDUIT   1183.60     0  01:39      1.51    3.83    1.00
  YS02001644YS02001647 CONDUIT   1453.52     0  01:39      1.93    0.85    1.00
  YS02001647YS02001649 CONDUIT   1471.24     0  01:39      2.14    0.78    1.00
  YS02001649YS02001757 CONDUIT   1691.48     0  01:46      2.28    1.03    1.00
  YS02001652YS02001649 CONDUIT   2429.36     0  02:23      3.09    1.20    1.00
  YS02001655YS02001652 CONDUIT   2429.33     0  02:25      3.09    1.18    1.00
  YS02001658YS02001655 CONDUIT   2731.29     0  02:26      3.48    1.16    1.00
  YS02001661YS02001658 CONDUIT   2783.85     0  02:24      3.54    1.09    1.00
  YS02001664YS02001661 CONDUIT   2783.81     0  02:26      3.54    0.87    1.00
  YS02001745YS02001748 CONDUIT   2064.11     0  02:24      2.63    0.79    1.00
  YS02001748YS02001751 CONDUIT   2066.71     0  02:24      2.63    1.04    1.00
  YS02001751YS02001754 CONDUIT   2068.73     0  02:24      2.63    1.00    1.00
  YS02001754YS02001757 CONDUIT   2070.34     0  02:24      2.64    0.83    1.00
  YS02001757CaochengTiaoxuchi CONDUIT   2697.12     0  02:01      3.43    1.17    1.00
  YS02001759YS02001757 CONDUIT   1497.74     0  02:26      1.91    1.06    1.00
  YS02001762YS02001759 CONDUIT    721.98     0  02:26      0.92    0.83    1.00
  YS02001765YS02001762 CONDUIT    721.73     0  02:26      0.92    0.68    1.00
  YS02001767YS02001765 CONDUIT    721.99     0  02:26      0.92    0.91    1.00
  YS02001770YS02001767 CONDUIT    722.34     0  02:26      0.92    2.86    1.00
  YS02001774YS02001770 CONDUIT    852.15     0  02:20      1.08    0.54    1.00
  YS02001779YS02001774 CONDUIT    851.80     0  02:28      1.08    0.43    1.00
  YS02001783YS02001784 CONDUIT   1321.42     0  02:24      2.63    1.82    1.00
  YS02001784YS02001785 CONDUIT   1322.57     0  02:24      2.63    3.08    1.00
  YS02001786YS02001788 CONDUIT   1322.58     0  02:23      2.74    2.55    0.94
  YS02001788YS02001790 CONDUIT   1349.46     0  02:26      2.94    0.99    0.92
  YS02001790YS02001791 CONDUIT   1417.93     0  02:26      3.58    1.54    0.76
  YS02001791YS02001793 CONDUIT   1446.55     0  02:26      6.79    0.62    0.52
  YS02001793JiankangQianchi CONDUIT   1414.39     0  02:26      2.51    0.11    0.69
  YS02001882YS02001884 CONDUIT     31.03     0  01:26      0.26    0.04    1.00
  YS02001884YS02001887 CONDUIT     43.51     0  03:04      0.20    0.06    1.00
  YS02001887YS02001890 CONDUIT   2052.03     0  02:27      2.61    3.51    1.00
  YS02001890YS02001895 CONDUIT    518.49     0  02:12      0.66    0.24    1.00
  YS02001895YS02001898 CONDUIT    519.13     0  02:23      0.66    0.90    1.00
  YS02001898YS02001901 CONDUIT    518.94     0  02:24      0.66    0.33    1.00
  YS02001901YS02001904 CONDUIT    518.71     0  02:16      0.66    0.80    1.00
  YS02001904YS02001907 CONDUIT    519.96     0  02:14      0.66    0.18    1.00
  YS02001907YS02006553 CONDUIT   2160.65     0  02:25      2.40    2.54    1.00
  YS02001910YS02001907 CONDUIT   1993.03     0  02:30      2.54    1.12    1.00
  YS02001915YS02001910 CONDUIT   1993.23     0  02:20      2.54    0.99    1.00
  YS02001918YS02001915 CONDUIT   1221.69     0  02:29      1.56    0.67    1.00
  YS02001920YS02001918 CONDUIT   1681.50     0  02:26      2.14    1.63    1.00
  YS02001923YS02001920 CONDUIT   1679.11     0  02:26      2.14    0.75    1.00
  YS02001926YS02001923 CONDUIT   1679.05     0  02:26      2.14    2.40    1.00
  YS02001929YS02001926 CONDUIT   1678.54     0  02:26      2.14    0.80    1.00
  YS02006553YS02006556 CONDUIT   2160.56     0  02:24      2.75    1.85    1.00
  YS02006556YS02006558 CONDUIT   2160.62     0  02:25      2.75    1.71    1.00
  YS02006558YS02006561 CONDUIT   1321.50     0  02:26      4.67    2.92    1.00
  YS02006561YS02001783 CONDUIT   1321.68     0  02:23      2.63    0.68    1.00
  YS02163301YS02001633 CONDUIT   1138.95     0  02:27      1.45    1.07    1.00
  YS02163601YS02164001 CONDUIT   1182.71     0  01:39      1.51    1.05    1.00
  YS02164001YS02001641 CONDUIT   1183.01     0  01:39      1.51    1.62    1.00
  CC-R1                PUMP       683.00     0  01:34              1.00
  CC-R2                PUMP       683.00     0  01:43              1.00
  CC-S1                PUMP       200.00     0  00:34              1.00
  CC-S2                PUMP       200.00     0  01:26              1.00
  JK-R1                PUMP      1000.00     0  01:23              1.00
  JK-R2                PUMP         0.00     0  00:00              0.00
  JK-S                 PUMP       300.00     0  01:20              1.00
  
  
  ***************************
  Flow Classification Summary
  ***************************
  
  -------------------------------------------------------------------------------------
                      Adjusted    ---------- Fraction of Time in Flow Class ---------- 
                       /Actual         Up    Down  Sub   Sup   Up    Down  Norm  Inlet 
  Conduit               Length    Dry  Dry   Dry   Crit  Crit  Crit  Crit  Ltd   Ctrl  
  -------------------------------------------------------------------------------------
  1                       1.00   0.00  0.00  0.00  0.00  1.00  0.00  0.00  0.64  0.00
  WS02003060WS02003069    1.00   0.00  0.00  0.00  0.97  0.03  0.00  0.00  0.64  0.00
  WS02003066WSF200        1.00   0.02  0.00  0.00  0.00  0.98  0.00  0.00  0.74  0.00
  WS02003067WS02003066    1.00   0.01  0.00  0.00  0.99  0.00  0.00  0.00  0.00  0.00
  WS02003069WS02003072    1.00   0.00  0.00  0.00  1.00  0.00  0.00  0.00  0.64  0.00
  WS02003072WS02003073    1.00   0.00  0.00  0.00  0.00  0.00  0.00  1.00  0.00  0.00
  WS02004401WS02004402    1.00   0.00  0.00  0.00  1.00  0.00  0.00  0.00  0.00  0.00
  WS02004402WS02004403    1.00   0.00  0.00  0.00  1.00  0.00  0.00  0.00  0.00  0.00
  WS02004403WS02004404    1.00   0.00  0.00  0.00  1.00  0.00  0.00  0.00  0.00  0.00
  WS02004404WS02004405    1.00   0.00  0.00  0.00  1.00  0.00  0.00  0.00  0.00  0.00
  WS02004405WS02004406    1.00   0.00  0.00  0.00  1.00  0.00  0.00  0.00  0.00  0.00
  WS02004406WS02004407    1.00   0.00  0.00  0.00  1.00  0.00  0.00  0.00  0.00  0.00
  WS02004407WS02004409    1.00   0.00  0.00  0.00  0.98  0.01  0.00  0.00  0.99  0.00
  WS02004409WS02004410    1.00   0.00  0.00  0.00  1.00  0.00  0.00  0.00  0.00  0.00
  WS02004410WS02004411    1.00   0.00  0.00  0.00  1.00  0.00  0.00  0.00  0.00  0.00
  WS02004411WS02004412    1.00   0.00  0.00  0.00  1.00  0.00  0.00  0.00  0.00  0.00
  WS02004412WS02004413    1.00   0.01  0.00  0.00  0.99  0.00  0.00  0.00  0.00  0.00
  WS02004413WS02003067    1.00   0.01  0.00  0.00  0.00  0.00  0.99  0.00  0.00  0.00
  WS02006109WS02006110    1.00   0.00  0.00  0.00  1.00  0.00  0.00  0.00  0.00  0.00
  WS02006110WS02006113    1.00   0.00  0.00  0.00  1.00  0.00  0.00  0.00  0.00  0.00
  WS02006111WS02006112    1.00   0.00  0.00  0.00  1.00  0.00  0.00  0.00  1.00  0.00
  WS02006112WS02006115    1.00   0.00  0.00  0.00  1.00  0.00  0.00  0.00  0.00  0.00
  WS02006113WS02006111    1.00   0.00  0.00  0.00  0.00  1.00  0.00  0.00  0.11  0.00
  WS02006115WS02006116    1.00   0.00  0.00  0.00  1.00  0.00  0.00  0.00  0.00  0.00
  WS02006116WS02004401    1.00   0.00  0.00  0.00  1.00  0.00  0.00  0.00  0.00  0.00
  WS02006228WS02006109    1.00   0.00  0.00  0.00  1.00  0.00  0.00  0.00  0.00  0.00
  WS02006229WS02006228    1.00   0.00  0.00  0.00  1.00  0.00  0.00  0.00  0.00  0.00
  WS02006230WS02006229    1.00   0.00  0.00  0.00  1.00  0.00  0.00  0.00  0.01  0.00
  WS02006231WS02006230    1.00   0.00  0.00  0.00  0.54  0.00  0.46  0.00  0.00  0.00
  WS02006232WS02006231    1.00   0.00  0.00  0.00  0.98  0.00  0.02  0.00  0.00  0.00
  WS02006234WS02006232    1.00   0.00  0.00  0.00  1.00  0.00  0.00  0.00  0.51  0.00
  WS02006235WS02006234    1.00   0.05  0.00  0.00  0.67  0.00  0.27  0.00  0.00  0.00
  WS02006238WS02006235    1.00   0.01  0.00  0.00  0.99  0.00  0.00  0.00  0.01  0.00
  WS02006239WS02006238    1.00   0.05  0.00  0.00  0.95  0.00  0.00  0.01  0.47  0.00
  WS02006240WS02006239    1.00   0.05  0.00  0.00  0.66  0.00  0.00  0.29  0.01  0.00
  WS02006242WS02006240    1.00   0.03  0.02  0.00  0.93  0.00  0.03  0.00  0.00  0.00
  WS02006243WS02006242    1.00   0.02  0.00  0.00  0.94  0.00  0.00  0.04  0.52  0.00
  WS02006245WS02006243    1.00   0.02  0.00  0.00  0.72  0.00  0.00  0.26  0.00  0.00
  WS02006247WS02006245    1.00   0.01  0.00  0.00  0.94  0.00  0.00  0.05  0.00  0.00
  WS02006248WS02006247    1.00   0.01  0.00  0.00  0.95  0.00  0.00  0.04  0.12  0.00
  WS02006249WS02006248    1.00   0.00  0.01  0.00  0.67  0.00  0.32  0.00  0.00  0.00
  WS02006251WS02006249    1.00   0.00  0.00  0.00  1.00  0.00  0.00  0.00  0.59  0.00
  WS02006252WS02006251    1.00   0.04  0.27  0.00  0.35  0.00  0.34  0.00  0.48  0.00
  WS02006256WS02006235    1.00   0.01  0.00  0.00  0.99  0.00  0.00  0.00  0.01  0.00
  WSF200WS02003060        1.00   0.00  0.02  0.00  0.41  0.57  0.00  0.00  0.61  0.00
  YS02001580YS02001583    1.00   0.25  0.30  0.00  0.45  0.00  0.00  0.00  0.60  0.00
  YS02001583YS02001586    1.00   0.22  0.26  0.00  0.51  0.00  0.01  0.00  0.60  0.00
  YS02001586YS02001590    1.00   0.07  0.00  0.00  0.73  0.02  0.00  0.18  0.29  0.00
  YS02001590YS02001593    1.00   0.07  0.00  0.00  0.37  0.00  0.55  0.00  0.00  0.00
  YS02001593YS02001596    1.00   0.07  0.00  0.00  0.43  0.02  0.00  0.49  0.02  0.00
  YS02001596YS02001600    1.00   0.07  0.00  0.00  0.54  0.02  0.00  0.38  0.03  0.00
  YS02001600YS02001601    1.00   0.07  0.00  0.00  0.93  0.00  0.00  0.00  0.55  0.00
  YS02001601YS02001602    1.00   0.07  0.00  0.00  0.93  0.00  0.00  0.00  0.00  0.00
  YS02001602YS02001605    1.00   0.07  0.00  0.00  0.93  0.00  0.00  0.00  0.00  0.00
  YS02001605YS02001607    1.00   0.07  0.00  0.00  0.93  0.00  0.00  0.00  0.00  0.00
  YS02001607YS02001610    1.00   0.07  0.00  0.00  0.93  0.00  0.00  0.00  0.00  0.00
  YS02001610YS02001613    1.00   0.07  0.00  0.00  0.93  0.00  0.00  0.00  0.00  0.00
  YS02001613YS02001616    1.00   0.07  0.00  0.00  0.93  0.00  0.00  0.00  0.00  0.00
  YS02001616YS02001619    1.00   0.07  0.00  0.00  0.93  0.00  0.00  0.00  0.00  0.00
  YS02001619YS02001622    1.00   0.07  0.00  0.00  0.92  0.01  0.00  0.00  0.30  0.00
  YS02001622YS02001625    1.00   0.07  0.00  0.00  0.93  0.00  0.00  0.00  0.01  0.00
  YS02001625YS02001629    1.00   0.07  0.03  0.00  0.48  0.00  0.41  0.00  0.00  0.00
  YS02001629YS02163301    1.00   0.07  0.00  0.00  0.92  0.00  0.00  0.00  0.00  0.00
  YS02001633YS02163601    1.00   0.00  0.00  0.00  1.00  0.00  0.00  0.00  0.13  0.00
  YS02001641YS02001644    1.00   0.00  0.00  0.00  1.00  0.00  0.00  0.00  0.00  0.00
  YS02001644YS02001647    1.00   0.00  0.08  0.00  0.92  0.00  0.00  0.00  0.00  0.00
  YS02001647YS02001649    1.00   0.00  0.08  0.00  0.77  0.15  0.00  0.00  0.55  0.00
  YS02001649YS02001757    1.00   0.00  0.00  0.00  0.77  0.23  0.00  0.00  0.40  0.00
  YS02001652YS02001649    1.00   0.00  0.00  0.00  0.97  0.03  0.00  0.00  0.65  0.00
  YS02001655YS02001652    1.00   0.00  0.00  0.00  0.50  0.02  0.00  0.48  0.04  0.00
  YS02001658YS02001655    1.00   0.00  0.07  0.00  0.71  0.22  0.00  0.00  0.57  0.00
  YS02001661YS02001658    1.00   0.07  0.00  0.00  0.56  0.36  0.00  0.00  0.59  0.00
  YS02001664YS02001661    1.00   0.07  0.00  0.00  0.71  0.22  0.00  0.00  0.75  0.00
  YS02001745YS02001748    1.00   0.00  0.00  0.00  0.35  0.01  0.00  0.64  0.04  0.00
  YS02001748YS02001751    1.00   0.00  0.00  0.00  0.80  0.20  0.00  0.00  0.69  0.00
  YS02001751YS02001754    1.00   0.00  0.00  0.00  0.45  0.02  0.00  0.53  0.03  0.00
  YS02001754YS02001757    1.00   0.00  0.00  0.00  1.00  0.00  0.00  0.00  0.69  0.00
  YS02001757CaochengTiaoxuchi    1.00   0.00  0.00  0.00  1.00  0.00  0.00  0.00  0.56  0.00
  YS02001759YS02001757    1.00   0.00  0.00  0.00  0.99  0.01  0.00  0.00  0.64  0.00
  YS02001762YS02001759    1.00   0.00  0.00  0.00  1.00  0.00  0.00  0.00  0.01  0.00
  YS02001765YS02001762    1.00   0.00  0.00  0.00  1.00  0.00  0.00  0.00  0.64  0.00
  YS02001767YS02001765    1.00   0.00  0.00  0.00  1.00  0.00  0.00  0.00  0.00  0.00
  YS02001770YS02001767    1.00   0.00  0.00  0.00  1.00  0.00  0.00  0.00  0.00  0.00
  YS02001774YS02001770    1.00   0.00  0.07  0.00  0.81  0.00  0.12  0.00  0.01  0.00
  YS02001779YS02001774    1.00   0.00  0.00  0.00  1.00  0.00  0.00  0.00  0.67  0.00
  YS02001783YS02001784    1.00   0.00  0.09  0.00  0.91  0.00  0.00  0.00  0.55  0.00
  YS02001784YS02001785    1.00   0.00  0.00  0.00  1.00  0.00  0.00  0.00  0.13  0.00
  YS02001786YS02001788    1.00   0.00  0.00  0.00  0.69  0.31  0.00  0.00  0.00  0.00
  YS02001788YS02001790    1.00   0.00  0.00  0.00  0.23  0.77  0.00  0.00  0.75  0.00
  YS02001790YS02001791    1.00   0.00  0.00  0.00  0.01  0.99  0.00  0.00  0.12  0.00
  YS02001791YS02001793    1.00   0.00  0.00  0.00  0.00  1.00  0.00  0.00  0.03  0.00
  YS02001793JiankangQianchi    1.00   0.00  0.00  0.00  0.94  0.06  0.00  0.00  0.89  0.00
  YS02001882YS02001884    1.00   0.07  0.00  0.00  0.92  0.00  0.00  0.00  0.00  0.00
  YS02001884YS02001887    1.00   0.03  0.03  0.00  0.94  0.00  0.00  0.00  0.00  0.00
  YS02001887YS02001890    1.00   0.00  0.00  0.00  0.98  0.00  0.02  0.00  0.00  0.00
  YS02001890YS02001895    1.00   0.00  0.07  0.00  0.92  0.00  0.00  0.00  0.00  0.00
  YS02001895YS02001898    1.00   0.08  0.00  0.00  0.90  0.00  0.02  0.00  0.00  0.00
  YS02001898YS02001901    1.00   0.08  0.00  0.00  0.92  0.00  0.00  0.00  0.00  0.00
  YS02001901YS02001904    1.00   0.08  0.00  0.00  0.92  0.00  0.00  0.00  0.00  0.00
  YS02001904YS02001907    1.00   0.00  0.08  0.00  0.92  0.00  0.00  0.00  0.00  0.00
  YS02001907YS02006553    1.00   0.00  0.01  0.00  0.99  0.00  0.00  0.00  0.00  0.00
  YS02001910YS02001907    1.00   0.00  0.00  0.00  0.98  0.00  0.00  0.01  0.11  0.00
  YS02001915YS02001910    1.00   0.00  0.00  0.00  0.98  0.02  0.00  0.00  0.12  0.00
  YS02001918YS02001915    1.00   0.00  0.00  0.00  0.99  0.01  0.00  0.00  0.66  0.00
  YS02001920YS02001918    1.00   0.00  0.00  0.00  1.00  0.00  0.00  0.00  0.01  0.00
  YS02001923YS02001920    1.00   0.00  0.00  0.00  1.00  0.00  0.00  0.00  0.82  0.00
  YS02001926YS02001923    1.00   0.00  0.04  0.00  0.23  0.00  0.73  0.00  0.00  0.00
  YS02001929YS02001926    1.00   0.00  0.07  0.00  0.93  0.00  0.00  0.00  0.73  0.00
  YS02006553YS02006556    1.00   0.01  0.00  0.00  0.99  0.00  0.00  0.00  0.03  0.00
  YS02006556YS02006558    1.00   0.00  0.00  0.00  1.00  0.00  0.00  0.00  0.00  0.00
  YS02006558YS02006561    1.00   0.09  0.00  0.00  0.21  0.70  0.00  0.00  0.11  0.00
  YS02006561YS02001783    1.00   0.09  0.00  0.00  0.31  0.60  0.00  0.00  0.62  0.00
  YS02163301YS02001633    1.00   0.00  0.07  0.00  0.93  0.00  0.00  0.00  0.00  0.00
  YS02163601YS02164001    1.00   0.00  0.05  0.00  0.95  0.00  0.00  0.00  0.00  0.00
  YS02164001YS02001641    1.00   0.01  0.04  0.00  0.95  0.00  0.00  0.00  0.05  0.00
  
  
  *************************
  Conduit Surcharge Summary
  *************************
  
  ----------------------------------------------------------------------------
                                                           Hours        Hours 
                         --------- Hours Full --------   Above Full   Capacity
  Conduit                Both Ends  Upstream  Dnstream   Normal Flow   Limited
  ----------------------------------------------------------------------------
  WS02003072WS02003073        0.01      0.01      0.01      2.02         0.01
  WS02004401WS02004402        0.01      0.01      0.01      0.01         0.01
  WS02004402WS02004403        0.01      0.01      0.01      0.01         0.01
  WS02004404WS02004405        0.01      0.01      0.01      3.07         0.01
  WS02004405WS02004406        0.01      0.01      0.01      1.72         0.01
  WS02006109WS02006110        1.73      1.74      2.74      1.80         0.01
  WS02006110WS02006113        0.01      0.01      2.72      0.01         0.01
  WS02006111WS02006112        0.01      0.01      2.80      0.01         0.01
  WS02006112WS02006115        0.01      0.01      1.76      0.01         0.01
  WS02006113WS02006111        0.01      0.01      0.01      0.01         0.01
  WS02006115WS02006116        0.01      0.01      0.01      0.01         0.01
  WS02006116WS02004401        0.01      0.01      0.01      0.01         0.01
  WS02006228WS02006109        2.69      2.74      2.69      2.88         2.69
  WS02006229WS02006228        2.68      2.70      2.68      2.82         2.67
  WS02006230WS02006229        2.77      2.80      2.77      3.15         2.77
  WS02006231WS02006230        1.75      1.75      1.83      3.04         0.01
  WS02006232WS02006231        1.81      1.81      2.74      1.85         0.01
  WS02006234WS02006232        2.61      2.61      2.74      1.84         1.83
  WS02006235WS02006234        1.97      1.97      2.65      3.00         0.01
  WS02006238WS02006235        2.68      2.68      2.73      0.01         0.01
  WS02006239WS02006238        2.67      2.69      2.70      2.68         2.35
  WS02006240WS02006239        2.64      2.67      2.64      2.67         2.15
  WS02006242WS02006240        2.66      2.66      2.69      2.69         0.01
  WS02006243WS02006242        2.67      2.67      2.68      0.01         0.04
  WS02006245WS02006243        2.66      2.66      2.66      0.88         1.25
  WS02006247WS02006245        2.66      2.66      2.66      2.95         2.65
  WS02006248WS02006247        2.66      2.66      2.66      0.01         0.05
  WS02006249WS02006248        2.65      2.65      2.65      2.94         0.01
  WS02006251WS02006249        2.65      2.65      2.65      2.66         2.60
  WS02006252WS02006251        2.69      2.69      2.70      2.69         0.01
  WS02006256WS02006235        3.00      3.02      3.38      1.99         0.01
  YS02001580YS02001583        1.46      1.46      1.52      0.01         0.01
  YS02001583YS02001586        1.47      1.47      1.60      0.01         0.01
  YS02001586YS02001590        1.60      1.60      1.68      0.01         0.01
  YS02001590YS02001593        1.68      1.68      1.71      1.66         0.01
  YS02001593YS02001596        1.69      1.69      1.81      0.01         0.01
  YS02001596YS02001600        1.86      1.86      1.96      0.01         0.01
  YS02001600YS02001601        2.00      2.00      2.21      0.01         0.01
  YS02001601YS02001602        2.14      2.14      2.23      1.92         0.01
  YS02001602YS02001605        2.11      2.11      2.14      2.69         0.01
  YS02001605YS02001607        2.08      2.11      2.11      2.08         1.98
  YS02001607YS02001610        1.70      1.70      1.73      0.01         0.01
  YS02001610YS02001613        1.70      1.70      1.73      0.01         0.01
  YS02001613YS02001616        1.65      1.65      1.70      0.01         0.01
  YS02001616YS02001619        1.63      1.63      1.65      0.48         0.38
  YS02001619YS02001622        1.63      1.63      1.64      1.61         1.47
  YS02001622YS02001625        1.64      1.64      1.85      0.01         0.01
  YS02001625YS02001629        1.55      1.55      1.85      0.01         0.01
  YS02001629YS02163301        1.86      1.86      1.88      0.43         0.12
  YS02001633YS02163601        1.91      1.91      1.97      0.26         0.28
  YS02001641YS02001644        1.84      1.87      1.84      2.25         1.76
  YS02001644YS02001647        1.61      1.61      1.84      0.01         0.01
  YS02001647YS02001649        1.61      1.61      1.76      0.01         0.01
  YS02001649YS02001757        1.76      1.76      1.84      0.04         0.07
  YS02001652YS02001649        1.60      1.60      1.76      0.17         0.17
  YS02001655YS02001652        1.37      1.37      1.57      0.16         0.16
  YS02001658YS02001655        1.10      1.10      1.37      0.12         0.12
  YS02001661YS02001658        0.49      0.49      1.10      0.10         0.10
  YS02001664YS02001661        0.26      0.26      0.60      0.01         0.01
  YS02001745YS02001748        0.26      0.26      0.94      0.01         0.01
  YS02001748YS02001751        1.08      1.08      1.28      0.03         0.03
  YS02001751YS02001754        1.28      1.28      1.51      0.01         0.01
  YS02001754YS02001757        1.56      1.56      1.84      0.01         0.01
  YS02001757CaochengTiaoxuchi        1.84      1.84      2.45      0.78         0.78
  YS02001759YS02001757        1.75      1.75      1.84      0.10         0.05
  YS02001762YS02001759        1.72      1.72      1.75      0.01         0.01
  YS02001765YS02001762        1.68      1.68      1.72      0.01         0.01
  YS02001767YS02001765        1.65      1.65      1.68      0.01         0.01
  YS02001770YS02001767        1.65      1.65      1.65      1.16         0.89
  YS02001774YS02001770        1.63      1.63      1.71      0.01         0.01
  YS02001779YS02001774        1.49      1.49      1.71      0.01         0.01
  YS02001783YS02001784        1.26      1.30      1.26      1.55         1.26
  YS02001784YS02001785        1.09      1.26      1.09      1.74         1.09
  YS02001786YS02001788        0.01      1.09      0.01      1.67         0.01
  YS02001790YS02001791        0.01      0.01      0.01      1.23         0.01
  YS02001793JiankangQianchi        0.01      0.01      7.99      0.01         0.01
  YS02001882YS02001884        1.20      1.20      1.22      0.01         0.01
  YS02001884YS02001887        1.26      1.26      1.28      0.01         0.01
  YS02001887YS02001890        1.30      1.30      1.32      0.53         0.01
  YS02001890YS02001895        1.19      1.19      1.35      0.01         0.01
  YS02001895YS02001898        1.18      1.18      1.19      0.01         0.01
  YS02001898YS02001901        1.19      1.19      1.26      0.01         0.01
  YS02001901YS02001904        1.24      1.24      1.26      0.01         0.01
  YS02001904YS02001907        1.24      1.24      1.65      0.01         0.01
  YS02001907YS02006553        1.75      1.75      1.78      0.22         0.22
  YS02001910YS02001907        1.35      1.35      1.64      0.34         0.34
  YS02001915YS02001910        1.20      1.20      1.35      0.01         0.03
  YS02001918YS02001915        1.06      1.06      1.20      0.01         0.01
  YS02001920YS02001918        1.06      1.06      1.08      0.22         0.01
  YS02001923YS02001920        1.01      1.01      1.08      0.01         0.01
  YS02001926YS02001923        0.50      0.50      0.54      0.31         0.01
  YS02001929YS02001926        0.36      0.36      0.54      0.01         0.01
  YS02006553YS02006556        1.49      1.49      1.65      0.17         0.18
  YS02006556YS02006558        1.59      1.59      1.67      0.16         0.01
  YS02006558YS02006561        1.12      1.46      1.12      1.72         1.12
  YS02006561YS02001783        1.02      1.02      1.30      0.01         0.01
  YS02163301YS02001633        1.88      1.88      1.94      0.24         0.01
  YS02163601YS02164001        1.87      1.87      1.97      0.13         0.01
  YS02164001YS02001641        1.86      1.87      1.87      0.86         0.78
  
  
  ***************
  Pumping Summary
  ***************
  
  ---------------------------------------------------------------------------------------------------------
                                                  Min       Avg       Max     Total     Power    % Time Off
                        Percent   Number of      Flow      Flow      Flow    Volume     Usage    Pump Curve
  Pump                 Utilized   Start-Ups       LPS       LPS       LPS  10^6 ltr     Kw-hr    Low   High
  ---------------------------------------------------------------------------------------------------------
  CC-R1                   32.02           1      0.00    683.00    683.00     6.298    123.98    0.0   47.5
  CC-R2                   30.04           1      0.00    683.00    683.00     5.909    116.78    0.0   50.6
  CC-S1                   37.25           8      0.00    200.00    200.00     2.146     10.15    0.0   32.8
  CC-S2                   33.57           1      0.00    200.00    200.00     1.934      8.86    0.0   36.4
  JK-R1                   16.73         102      0.00   1000.00   1000.00     4.818     53.91    0.0    0.0
  JK-R2                    0.00           0      0.00      0.00      0.00     0.000      0.00    0.0    0.0
  JK-S                    24.85          11      0.00    300.00    300.00     2.147     31.18    0.0    0.0
  

  Analysis begun on:  Thu Sep  7 10:13:26 2023
  Analysis ended on:  Thu Sep  7 10:14:04 2023
  Total elapsed time: 00:00:38