
  OWA STORM WATER MANAGEMENT MODEL - VERSION v5.1.14 (OWA 2022-07-31)
  --------------------------------------------------------------

  WARNING 04: minimum elevation drop used for Conduit WS02004404WS02004405
  WARNING 03: negative offset ignored for Link YS02001904YS02001907
  
  *********************************************************
  NOTE: The summary statistics displayed in this report are
  based on results found at every computational time step,  
  not just on results from each reporting time step.
  *********************************************************
  
  ****************
  Analysis Options
  ****************
  Flow Units ............... LPS
  Process Models:
    Rainfall/Runoff ........ YES
    RDII ................... NO
    Snowmelt ............... NO
    Groundwater ............ NO
    Flow Routing ........... YES
    Ponding Allowed ........ NO
    Water Quality .......... NO
  Infiltration Method ...... HORTON
  Flow Routing Method ...... DYNWAVE
  Surcharge Method ......... EXTRAN
  Starting Date ............ 08/28/2015 08:00:00
  Ending Date .............. 08/28/2015 16:00:00
  Antecedent Dry Days ...... 8.0
  Report Time Step ......... 00:01:00
  Wet Time Step ............ 00:01:00
  Dry Time Step ............ 00:01:00
  Routing Time Step ........ 30.00 sec
  Variable Time Step ....... YES
  Maximum Trials ........... 8
  Number of Threads ........ 4
  Head Tolerance ........... 0.001500 m
  
  
  **************************        Volume         Depth
  Runoff Quantity Continuity     hectare-m            mm
  **************************     ---------       -------
  Total Precipitation ......         2.565        77.326
  Evaporation Loss .........         0.000         0.000
  Infiltration Loss ........         0.101         3.030
  Surface Runoff ...........         2.432        73.324
  Final Storage ............         0.033         0.995
  Continuity Error (%) .....        -0.030
  
  
  **************************        Volume        Volume
  Flow Routing Continuity        hectare-m      10^6 ltr
  **************************     ---------     ---------
  Dry Weather Inflow .......         0.025         0.251
  Wet Weather Inflow .......         2.430        24.302
  Groundwater Inflow .......         0.000         0.000
  RDII Inflow ..............         0.000         0.000
  External Inflow ..........         0.083         0.834
  External Outflow .........         1.842        18.421
  Flooding Loss ............         0.795         7.951
  Evaporation Loss .........         0.000         0.000
  Exfiltration Loss ........         0.000         0.000
  Initial Stored Volume ....         0.243         2.431
  Final Stored Volume ......         0.182         1.816
  Continuity Error (%) .....        -1.333
  
  
  *************************
  Highest Continuity Errors
  *************************
  Node YS02001583 (-16.62%)
  Node YS02001884 (4.47%)
  Node WS02006256 (-4.47%)
  
  
  ***************************
  Time-Step Critical Elements
  ***************************
  Link WS02006252WS02006251 (28.10%)
  Link WS02006238WS02006235 (21.54%)
  Link WS02004404WS02004405 (12.58%)
  Link YS02001791YS02001793 (8.88%)
  Link WS02003066WSF200 (6.77%)
  
  
  ********************************
  Highest Flow Instability Indexes
  ********************************
  Link WS02006113WS02006111 (36)
  Link WS02006252WS02006251 (26)
  Link WS02006238WS02006235 (26)
  Link WS02006256WS02006235 (24)
  Link WS02006111WS02006112 (19)
  
  
  *************************
  Routing Time Step Summary
  *************************
  Minimum Time Step           :     0.01 sec
  Average Time Step           :     2.60 sec
  Maximum Time Step           :    30.00 sec
  Percent in Steady State     :    -0.00
  Average Iterations per Step :     3.62
  Percent Not Converging      :    17.39
  
  
  ***************************
  Subcatchment Runoff Summary
  ***************************
  
  ------------------------------------------------------------------------------------------------------------------------------
                            Total      Total      Total      Total     Imperv       Perv      Total       Total     Peak  Runoff
                           Precip      Runon       Evap      Infil     Runoff     Runoff     Runoff      Runoff   Runoff   Coeff
  Subcatchment                 mm         mm         mm         mm         mm         mm         mm    10^6 ltr      LPS
  ------------------------------------------------------------------------------------------------------------------------------
  sub60                     81.29       0.00       0.00       1.85      70.35       7.91      78.26        1.03   633.18   0.963
  sub61                     81.29       0.00       0.00       2.67      66.36      11.15      77.51        1.42   870.88   0.953
  sub62                     81.29       0.00       0.00       1.23      73.52       5.28      78.79        2.16  1220.92   0.969
  sub63                     81.29       0.00       0.00       4.89      56.76      18.70      75.46        1.71   948.69   0.928
  sub64                     81.29       0.00       0.00       2.48      67.90       9.72      77.63        1.86   975.23   0.955
  sub65                     81.29       0.00       0.00       2.14      69.48       8.43      77.91        2.14  1084.15   0.958
  sub66                     81.29       0.00       0.00       5.96      56.65      17.62      74.27        3.46  1379.27   0.914
  sub67                     66.00       0.00       0.00       1.18      59.48       4.10      63.58        1.18   803.32   0.963
  sub68                     66.00       0.00       0.00       2.25      55.57       6.99      62.56        1.72  1108.06   0.948
  sub69                     81.29       0.00       0.00       1.96      69.00      10.24      79.23        2.93  1459.46   0.975
  sub70                     81.29       0.00       0.00       6.41      53.49      21.23      74.73        2.16   781.26   0.919
  sub71                     66.00       0.00       0.00       1.28      59.39       4.00      63.39        1.66   973.00   0.960
  sub72                     66.00       0.00       0.00       1.14      59.97       3.48      63.45        0.87   477.99   0.961
  
  
  ******************
  Node Depth Summary
  ******************
  
  ---------------------------------------------------------------------------------
                                 Average  Maximum  Maximum  Time of Max    Reported
                                   Depth    Depth      HGL   Occurrence   Max Depth
  Node                 Type       Meters   Meters   Meters  days hr:min      Meters
  ---------------------------------------------------------------------------------
  WS02003060           JUNCTION     0.21     0.38     5.32     0  02:30        0.38
  WS02003066           JUNCTION     0.18     0.30     5.85     0  02:31        0.30
  WS02003067           JUNCTION     0.47     0.70     6.02     0  02:31        0.70
  WS02003069           JUNCTION     0.23     0.43     5.01     0  02:31        0.43
  WS02003072           JUNCTION     0.29     0.50     4.87     0  02:32        0.50
  WS02003073           JUNCTION     0.16     0.30     4.36     0  02:32        0.30
  WS02004401           JUNCTION     0.57     0.85     6.85     0  02:54        0.85
  WS02004402           JUNCTION     0.61     0.88     6.84     0  02:54        0.88
  WS02004403           JUNCTION     0.63     0.89     6.82     0  02:55        0.89
  WS02004404           JUNCTION     0.71     0.96     6.81     0  02:55        0.96
  WS02004405           JUNCTION     0.70     0.96     6.81     0  02:55        0.96
  WS02004406           JUNCTION     0.72     0.96     6.79     0  02:55        0.96
  WS02004407           JUNCTION     0.16     0.30     6.61     0  02:55        0.30
  WS02004409           JUNCTION     0.36     0.67     6.44     0  02:29        0.67
  WS02004410           JUNCTION     0.39     0.68     6.40     0  02:30        0.68
  WS02004411           JUNCTION     0.41     0.69     6.37     0  02:30        0.69
  WS02004412           JUNCTION     0.43     0.70     6.34     0  02:30        0.70
  WS02004413           JUNCTION     0.59     0.86     6.33     0  02:30        0.86
  WS02006109           JUNCTION     0.63     1.12     7.74     0  02:13        1.01
  WS02006110           JUNCTION     0.63     1.13     7.72     0  02:13        0.96
  WS02006111           JUNCTION     0.17     0.90     7.60     0  00:00        0.40
  WS02006112           JUNCTION     0.73     2.68     8.56     0  00:00        1.14
  WS02006113           JUNCTION     0.25     1.40     8.29     0  00:00        0.46
  WS02006115           JUNCTION     0.45     1.65     7.79     0  00:00        0.86
  WS02006116           JUNCTION     0.54     1.06     7.10     0  00:00        0.83
  WS02006228           JUNCTION     0.62     1.13     7.78     0  02:45        1.05
  WS02006229           JUNCTION     0.59     1.17     7.86     0  02:45        1.05
  WS02006230           JUNCTION     0.59     1.31     8.06     0  02:56        1.16
  WS02006231           JUNCTION     0.40     1.10     8.23     0  02:55        0.90
  WS02006232           JUNCTION     0.53     1.51     8.55     0  01:47        1.51
  WS02006234           JUNCTION     0.45     1.96     9.12     0  01:47        1.96
  WS02006235           JUNCTION     0.49     2.00     9.16     0  01:47        2.00
  WS02006238           JUNCTION     0.52     2.15     9.29     0  01:47        2.15
  WS02006239           JUNCTION     0.48     2.03     9.24     0  01:47        2.03
  WS02006240           JUNCTION     0.45     2.10     9.39     0  01:47        2.10
  WS02006242           JUNCTION     0.52     1.55     8.82     0  01:47        1.55
  WS02006243           JUNCTION     0.44     1.48     8.90     0  01:47        1.48
  WS02006245           JUNCTION     0.44     1.56     9.04     0  01:47        1.56
  WS02006247           JUNCTION     0.46     1.47     8.97     0  01:47        1.47
  WS02006248           JUNCTION     0.42     1.10     8.69     0  01:40        1.10
  WS02006249           JUNCTION     0.45     1.09     8.69     0  01:40        1.09
  WS02006251           JUNCTION     0.45     1.62     9.29     0  01:40        1.15
  WS02006252           JUNCTION     0.32     1.50     9.74     0  01:36        0.71
  WS02006256           JUNCTION     0.92     2.35     9.28     0  00:10        2.35
  WSF200               JUNCTION     0.15     0.29     5.52     0  02:31        0.29
  YS02001580           JUNCTION     0.14     1.05     9.59     0  01:24        0.77
  YS02001583           JUNCTION     0.17     1.14     9.64     0  01:24        0.83
  YS02001586           JUNCTION     0.27     1.13     9.30     0  01:24        1.13
  YS02001590           JUNCTION     0.38     1.39     9.25     0  01:47        1.39
  YS02001593           JUNCTION     0.31     1.43     9.29     0  01:24        1.43
  YS02001596           JUNCTION     0.42     1.77     9.19     0  01:24        1.77
  YS02001600           JUNCTION     0.50     1.87     9.00     0  01:24        1.87
  YS02001601           JUNCTION     0.69     2.06     8.90     0  01:23        2.06
  YS02001602           JUNCTION     0.59     1.87     8.77     0  01:24        1.87
  YS02001605           JUNCTION     0.55     1.78     8.68     0  01:24        1.78
  YS02001607           JUNCTION     0.53     1.68     8.53     0  01:24        1.68
  YS02001610           JUNCTION     0.57     1.68     8.48     0  01:24        1.68
  YS02001613           JUNCTION     0.53     1.70     8.54     0  01:24        1.70
  YS02001616           JUNCTION     0.47     1.61     8.52     0  01:24        1.61
  YS02001619           JUNCTION     0.45     1.61     8.54     0  01:24        1.61
  YS02001622           JUNCTION     0.44     1.62     8.52     0  01:24        1.58
  YS02001625           JUNCTION     0.68     1.78     8.38     0  01:24        1.78
  YS02001629           JUNCTION     0.58     1.85     8.40     0  01:24        1.85
  YS02001633           JUNCTION     0.65     2.08     8.53     0  01:25        2.08
  YS02001641           JUNCTION     0.62     2.03     8.46     0  01:53        1.95
  YS02001644           JUNCTION     0.62     1.92     8.35     0  01:25        1.92
  YS02001647           JUNCTION     0.41     1.90     8.51     0  01:26        1.90
  YS02001649           JUNCTION     0.47     2.05     8.44     0  01:26        2.05
  YS02001652           JUNCTION     0.35     2.16     8.75     0  01:26        2.16
  YS02001655           JUNCTION     0.28     2.20     9.05     0  01:26        2.20
  YS02001658           JUNCTION     0.20     2.30     9.44     0  01:26        2.30
  YS02001661           JUNCTION     0.19     1.68     9.09     0  01:26        1.45
  YS02001664           JUNCTION     0.07     1.31     9.23     0  01:26        1.08
  YS02001745           JUNCTION     0.09     2.28     9.80     0  01:26        0.81
  YS02001748           JUNCTION     0.18     2.27     9.35     0  01:26        1.24
  YS02001751           JUNCTION     0.24     2.20     9.08     0  01:26        1.42
  YS02001754           JUNCTION     0.32     2.20     8.81     0  01:26        1.68
  YS02001757           JUNCTION     0.48     2.21     8.47     0  01:26        2.03
  YS02001759           JUNCTION     0.43     2.20     8.57     0  01:26        2.02
  YS02001762           JUNCTION     0.42     2.15     8.55     0  01:26        1.99
  YS02001765           JUNCTION     0.40     2.10     8.55     0  01:26        1.94
  YS02001767           JUNCTION     0.40     2.03     8.52     0  01:25        1.93
  YS02001770           JUNCTION     0.41     1.95     8.44     0  01:25        1.95
  YS02001774           JUNCTION     0.47     2.01     8.43     0  01:26        1.99
  YS02001779           JUNCTION     0.30     1.68     8.37     0  01:25        1.68
  YS02001783           JUNCTION     0.27     1.24     7.38     0  02:35        1.22
  YS02001784           JUNCTION     0.28     1.13     7.19     0  02:34        1.11
  YS02001786           JUNCTION     0.24     0.88     6.91     0  02:36        0.87
  YS02001788           JUNCTION     0.17     0.62     6.60     0  02:36        0.62
  YS02001790           JUNCTION     0.20     0.73     6.37     0  02:37        0.72
  YS02001791           JUNCTION     0.13     0.44     5.91     0  02:36        0.44
  YS02001793           JUNCTION     0.07     0.30     5.14     0  02:31        0.29
  YS02001882           JUNCTION     0.33     1.68     8.40     0  02:25        1.68
  YS02001884           JUNCTION     0.42     1.76     8.37     0  02:36        1.76
  YS02001887           JUNCTION     0.49     1.83     8.37     0  02:36        1.83
  YS02001890           JUNCTION     0.52     1.81     8.32     0  02:28        1.81
  YS02001895           JUNCTION     0.30     1.57     8.31     0  02:32        1.56
  YS02001898           JUNCTION     0.31     1.56     8.30     0  02:32        1.56
  YS02001901           JUNCTION     0.41     1.68     8.29     0  02:32        1.68
  YS02001904           JUNCTION     0.40     1.64     8.27     0  02:32        1.64
  YS02001907           JUNCTION     0.69     1.96     8.25     0  02:26        1.96
  YS02001910           JUNCTION     0.51     1.93     8.43     0  02:27        1.90
  YS02001915           JUNCTION     0.34     1.85     8.57     0  02:27        1.80
  YS02001918           JUNCTION     0.19     1.72     8.79     0  02:27        1.47
  YS02001920           JUNCTION     0.27     1.86     8.87     0  02:27        1.54
  YS02001923           JUNCTION     0.14     1.66     8.92     0  02:27        1.30
  YS02001926           JUNCTION     0.18     1.50     8.95     0  02:27        1.13
  YS02001929           JUNCTION     0.10     1.28     8.97     0  02:27        0.89
  YS02006553           JUNCTION     0.70     1.98     8.26     0  02:35        1.98
  YS02006556           JUNCTION     0.67     1.96     8.28     0  02:35        1.96
  YS02006558           JUNCTION     0.71     2.02     8.28     0  02:35        2.01
  YS02006561           JUNCTION     0.17     0.92     7.58     0  02:35        0.90
  YS02163301           JUNCTION     0.60     1.98     8.49     0  01:25        1.98
  YS02163601           JUNCTION     0.68     2.08     8.48     0  01:25        2.02
  YS02164001           JUNCTION     0.61     2.05     8.51     0  01:53        1.95
  CC-1                 OUTFALL      0.00     0.00     0.00     0  00:00        0.00
  CC-2                 OUTFALL      0.00     0.00     0.00     0  00:00        0.00
  JK-1                 OUTFALL      0.00     0.00     0.00     0  00:00        0.00
  JK-2                 OUTFALL      0.00     0.00     0.00     0  00:00        0.00
  WSC                  OUTFALL      0.16     0.30     0.97     0  02:33        0.30
  CC-storage           STORAGE      0.87     1.63     7.13     0  02:12        1.63
  JK-storage           STORAGE      1.37     4.24     5.04     0  02:47        4.23
  
  
  *******************
  Node Inflow Summary
  *******************
  
  -------------------------------------------------------------------------------------------------
                                  Maximum  Maximum                  Lateral       Total        Flow
                                  Lateral    Total  Time of Max      Inflow      Inflow     Balance
                                   Inflow   Inflow   Occurrence      Volume      Volume       Error
  Node                 Type           LPS      LPS  days hr:min    10^6 ltr    10^6 ltr     Percent
  -------------------------------------------------------------------------------------------------
  WS02003060           JUNCTION     16.53   552.69     0  02:31       0.476        4.66       0.052
  WS02003066           JUNCTION      0.00   536.14     0  02:31           0        4.19       0.034
  WS02003067           JUNCTION      0.00   536.14     0  02:30           0        4.19       0.101
  WS02003069           JUNCTION      0.32   552.95     0  02:31     0.00922        4.67       0.088
  WS02003072           JUNCTION      0.00   552.95     0  02:32           0        4.66       0.155
  WS02003073           JUNCTION      1.82   554.73     0  02:32      0.0524        4.71       0.126
  WS02004401           JUNCTION      0.00  1677.78     0  00:00           0         4.3       0.268
  WS02004402           JUNCTION      0.00  1171.33     0  00:01           0        4.29       0.260
  WS02004403           JUNCTION      0.00   907.51     0  00:01           0        4.28       0.256
  WS02004404           JUNCTION      0.16   854.53     0  00:01     0.00467        4.27       0.214
  WS02004405           JUNCTION      0.04   797.23     0  00:01      0.0011        4.26       0.291
  WS02004406           JUNCTION      0.00   655.67     0  00:02           0        4.25       0.514
  WS02004407           JUNCTION      0.00   537.07     0  02:55           0        4.22       0.025
  WS02004409           JUNCTION      0.00   536.92     0  02:55           0        4.22       0.065
  WS02004410           JUNCTION      0.00   536.60     0  02:55           0        4.22       0.111
  WS02004411           JUNCTION      0.00   536.33     0  02:30           0        4.22       0.137
  WS02004412           JUNCTION      0.00   536.23     0  02:30           0        4.21       0.179
  WS02004413           JUNCTION      0.00   536.23     0  02:30           0         4.2       0.325
  WS02006109           JUNCTION      1.23  1308.01     0  00:00      0.0354        4.23       0.153
  WS02006110           JUNCTION      0.00   560.15     0  02:13           0         4.2      -0.861
  WS02006111           JUNCTION      0.00  1176.04     0  00:00           0        4.23      -0.908
  WS02006112           JUNCTION      0.00  2307.30     0  00:00           0        4.27      -0.015
  WS02006113           JUNCTION      0.00   566.85     0  02:13           0        4.19      -1.180
  WS02006115           JUNCTION      0.00   899.27     0  00:00           0        4.24      -0.758
  WS02006116           JUNCTION      0.00  1098.16     0  00:01           0        4.28      -0.540
  WS02006228           JUNCTION      0.00   558.46     0  02:13           0        4.17       0.063
  WS02006229           JUNCTION      0.00   558.56     0  02:13           0        4.16       0.221
  WS02006230           JUNCTION     10.28   639.17     0  01:47       0.296        4.14       0.044
  WS02006231           JUNCTION      0.00   646.23     0  01:47           0        3.83      -0.071
  WS02006232           JUNCTION      0.00   640.29     0  01:47           0        3.84       0.197
  WS02006234           JUNCTION      0.00   612.89     0  01:47           0        3.82      -0.430
  WS02006235           JUNCTION      0.00   578.12     0  01:47           0        3.95       0.486
  WS02006238           JUNCTION      0.00   425.95     0  01:42           0        3.16      -0.248
  WS02006239           JUNCTION      0.00   428.09     0  01:42           0        3.07      -0.102
  WS02006240           JUNCTION      0.00   427.75     0  01:42           0        3.04       0.001
  WS02006242           JUNCTION      0.00   426.90     0  01:42           0        3.04       0.092
  WS02006243           JUNCTION      0.00   427.13     0  01:42           0        3.04      -0.069
  WS02006245           JUNCTION      0.00   427.25     0  01:42           0        3.05       0.311
  WS02006247           JUNCTION      0.00   427.83     0  01:42           0        3.05      -0.004
  WS02006248           JUNCTION      0.00   428.62     0  01:42           0        3.05       0.010
  WS02006249           JUNCTION      0.00   766.28     0  00:00           0        3.26       0.250
  WS02006251           JUNCTION      0.08   453.22     0  00:00     0.00222        3.25      -0.402
  WS02006252           JUNCTION      0.00   400.00     0  00:00           0        3.22      -0.984
  WS02006256           JUNCTION      0.00   313.76     0  04:11           0        1.15      -4.278
  WSF200               JUNCTION      0.00   536.14     0  02:31           0        4.18       0.012
  YS02001580           JUNCTION      0.00   339.11     0  01:24           0     0.00586      -8.121
  YS02001583           JUNCTION      0.00   332.69     0  01:24           0      0.0156     -14.253
  YS02001586           JUNCTION    781.26   781.26     0  01:32        2.16        2.17       0.065
  YS02001590           JUNCTION      0.00   318.88     0  01:47           0        1.59      -0.046
  YS02001593           JUNCTION      0.00   318.86     0  01:47           0        1.59       0.035
  YS02001596           JUNCTION      0.00   318.41     0  01:48           0        1.59       0.054
  YS02001600           JUNCTION      0.00   318.44     0  01:53           0        1.59       0.033
  YS02001601           JUNCTION   1459.46  1776.97     0  01:30        2.93        4.52       0.044
  YS02001602           JUNCTION      0.00   603.47     0  01:24           0        2.59       0.035
  YS02001605           JUNCTION      0.00   603.66     0  01:24           0        2.43       0.040
  YS02001607           JUNCTION      0.00   603.40     0  01:24           0        2.43       0.058
  YS02001610           JUNCTION      0.00   769.33     0  01:32           0         2.8       0.071
  YS02001613           JUNCTION      0.00   540.88     0  01:24           0        2.16       0.082
  YS02001616           JUNCTION      0.00   493.34     0  01:24           0        2.16      -0.030
  YS02001619           JUNCTION   1379.27  1379.27     0  01:31        3.46        5.24      -0.007
  YS02001622           JUNCTION      0.00   978.58     0  01:24           0        4.85      -0.017
  YS02001625           JUNCTION      0.00  1372.46     0  01:33           0        5.12       0.190
  YS02001629           JUNCTION      0.00   829.81     0  02:05           0        3.92       0.008
  YS02001633           JUNCTION   1084.35  1243.93     0  01:25        2.15        5.72       0.061
  YS02001641           JUNCTION      0.00  1249.61     0  01:25           0        5.39       0.061
  YS02001644           JUNCTION    975.27  1948.89     0  01:25        1.86        7.24       0.056
  YS02001647           JUNCTION      0.00  1956.64     0  01:25           0        6.75       0.012
  YS02001649           JUNCTION      0.00  2122.23     0  01:25           0        8.48       0.021
  YS02001652           JUNCTION      0.00  1103.35     0  01:27           0        1.72      -0.145
  YS02001655           JUNCTION      0.15  1099.86     0  01:27     0.00443        1.72      -0.281
  YS02001658           JUNCTION      0.00  1100.15     0  01:27           0        1.72      -0.166
  YS02001661           JUNCTION      0.00  1099.13     0  01:27           0        1.72      -0.014
  YS02001664           JUNCTION    948.69   948.69     0  01:28        1.71        1.71      -0.027
  YS02001745           JUNCTION    633.19   633.19     0  01:28        1.03        1.03       0.243
  YS02001748           JUNCTION      0.04   976.94     0  01:26      0.0013        1.03      -0.463
  YS02001751           JUNCTION      0.01  1021.87     0  01:25    0.000317        1.04       0.210
  YS02001754           JUNCTION      0.26   752.64     0  01:25     0.00749        1.05      -0.691
  YS02001757           JUNCTION      0.00  3617.13     0  01:27           0        12.8       0.061
  YS02001759           JUNCTION    870.92  1448.55     0  01:26        1.42        3.32       0.011
  YS02001762           JUNCTION      0.00   816.45     0  01:37           0         1.9       0.002
  YS02001765           JUNCTION      0.00   816.55     0  01:37           0         1.9       0.016
  YS02001767           JUNCTION      0.54   816.67     0  01:37      0.0154         1.9      -0.036
  YS02001770           JUNCTION   1221.08  1221.08     0  01:28        2.16        2.21      -0.025
  YS02001774           JUNCTION      0.00   780.63     0  01:25           0       0.347       0.397
  YS02001779           JUNCTION      0.01   781.37     0  01:25    0.000144       0.299      -0.368
  YS02001783           JUNCTION      0.00  1165.17     0  02:36           0        4.23       0.004
  YS02001784           JUNCTION      1.06  1166.36     0  02:36      0.0305        4.26       0.010
  YS02001786           JUNCTION      0.06  1166.88     0  02:36     0.00162        4.26       0.013
  YS02001788           JUNCTION      0.07  1167.02     0  02:36     0.00204        4.26       0.008
  YS02001790           JUNCTION      0.15  1177.29     0  02:35     0.00446        4.26       0.041
  YS02001791           JUNCTION      0.00  1293.41     0  02:36           0        4.26      -0.034
  YS02001793           JUNCTION      0.00  1235.37     0  02:39           0        4.26       0.006
  YS02001882           JUNCTION      0.00    31.09     0  02:23           0      0.0131       3.476
  YS02001884           JUNCTION      0.00    33.50     0  02:22           0      0.0491       4.684
  YS02001887           JUNCTION    803.77   804.30     0  02:36         1.2        1.23       0.347
  YS02001890           JUNCTION      0.00   805.42     0  02:36           0        1.19       0.412
  YS02001895           JUNCTION      0.00   516.91     0  02:37           0        1.11       0.132
  YS02001898           JUNCTION      0.00   516.89     0  02:37           0         1.1      -0.000
  YS02001901           JUNCTION      0.00   516.65     0  02:37           0        1.11       0.268
  YS02001904           JUNCTION      0.00   516.81     0  02:36           0        1.11       0.218
  YS02001907           JUNCTION      0.00  1974.68     0  02:37           0        3.72       0.472
  YS02001910           JUNCTION      0.00  1457.02     0  02:37           0        2.61       0.269
  YS02001915           JUNCTION    973.02  1456.51     0  02:37        1.66        2.63       0.046
  YS02001918           JUNCTION      0.00   494.31     0  02:37           0       0.987      -0.002
  YS02001920           JUNCTION      2.87   493.76     0  02:37      0.0827       0.978       0.083
  YS02001923           JUNCTION      0.04   487.33     0  02:37     0.00109       0.885      -0.047
  YS02001926           JUNCTION      0.05   485.66     0  02:37      0.0015       0.875      -0.012
  YS02001929           JUNCTION    477.99   477.99     0  02:37       0.872       0.872      -0.015
  YS02006553           JUNCTION      0.00   807.25     0  02:48           0        2.53       0.458
  YS02006556           JUNCTION      0.00   807.03     0  02:48           0        2.53       0.317
  YS02006558           JUNCTION   1108.94  1164.49     0  02:36        1.75        4.26       0.078
  YS02006561           JUNCTION      0.00  1164.86     0  02:36           0        4.23       0.000
  YS02163301           JUNCTION      0.00   832.07     0  02:05           0        3.91       0.056
  YS02163601           JUNCTION      0.11  1234.58     0  01:25     0.00317        5.38       0.101
  YS02164001           JUNCTION      0.00  1229.54     0  01:25           0        5.38       0.071
  CC-1                 OUTFALL       0.00   683.00     0  01:06           0        4.03       0.000
  CC-2                 OUTFALL       0.00   683.00     0  00:10           0        6.45       0.000
  JK-1                 OUTFALL       0.00  1000.00     0  00:00           0        2.45       0.000
  JK-2                 OUTFALL       0.00  1000.00     0  00:00           0       0.798       0.000
  WSC                  OUTFALL       0.00   554.63     0  02:33           0         4.7       0.000
  CC-storage           STORAGE       0.00  3617.10     0  01:27           0        15.1      -0.217
  JK-storage           STORAGE       0.00  1239.95     0  02:37           0        4.41      -0.378
  
  
  **********************
  Node Surcharge Summary
  **********************
  
  Surcharging occurs when water rises above the top of the highest conduit.
  ---------------------------------------------------------------------
                                               Max. Height   Min. Depth
                                   Hours       Above Crown    Below Rim
  Node                 Type      Surcharged         Meters       Meters
  ---------------------------------------------------------------------
  WS02006109           JUNCTION        1.68          0.298        1.522
  WS02006110           JUNCTION        0.76          0.220        1.630
  WS02006111           JUNCTION        0.01          0.087        1.783
  WS02006112           JUNCTION        0.82          1.680        0.000
  WS02006113           JUNCTION        0.01          0.600        1.330
  WS02006115           JUNCTION        0.01          0.642        1.608
  WS02006116           JUNCTION        0.01          0.000        2.290
  WS02006228           JUNCTION        1.68          0.301        1.899
  WS02006229           JUNCTION        1.69          0.366        2.084
  WS02006230           JUNCTION        0.76          0.233        1.337
  WS02006231           JUNCTION        0.83          0.395        1.135
  WS02006232           JUNCTION        1.71          0.812        0.668
  WS02006234           JUNCTION        1.01          1.240        0.000
  WS02006235           JUNCTION        1.65          1.290        0.000
  WS02006238           JUNCTION        1.68          1.430        0.000
  WS02006239           JUNCTION        1.66          1.290        0.000
  WS02006240           JUNCTION        1.67          1.390        0.000
  WS02006242           JUNCTION        1.71          0.820        0.000
  WS02006243           JUNCTION        1.67          0.770        0.000
  WS02006245           JUNCTION        1.66          0.850        0.000
  WS02006247           JUNCTION        1.67          0.760        0.000
  WS02006248           JUNCTION        1.66          0.380        0.000
  WS02006249           JUNCTION        1.66          0.390        0.000
  WS02006251           JUNCTION        0.88          0.589        0.591
  WS02006252           JUNCTION        2.04          1.100        0.000
  WS02006256           JUNCTION        6.54          2.050        0.000
  YS02001580           JUNCTION        0.82          0.450        0.000
  YS02001583           JUNCTION        0.83          0.500        0.000
  YS02001586           JUNCTION        0.99          0.510        0.000
  YS02001590           JUNCTION        1.08          0.740        0.010
  YS02001593           JUNCTION        1.08          0.805        0.035
  YS02001596           JUNCTION        1.19          1.038        0.032
  YS02001600           JUNCTION        1.36          1.190        0.000
  YS02001601           JUNCTION        1.75          1.440        0.000
  YS02001602           JUNCTION        1.68          1.270        0.000
  YS02001605           JUNCTION        1.61          1.180        0.000
  YS02001607           JUNCTION        1.05          0.680        0.000
  YS02001610           JUNCTION        1.08          0.680        0.000
  YS02001613           JUNCTION        1.05          0.700        0.000
  YS02001616           JUNCTION        1.00          0.610        0.000
  YS02001619           JUNCTION        0.98          0.610        0.000
  YS02001622           JUNCTION        0.98          0.620        0.000
  YS02001625           JUNCTION        1.18          0.780        0.000
  YS02001629           JUNCTION        0.93          0.470        0.000
  YS02001633           JUNCTION        1.21          1.060        0.000
  YS02001641           JUNCTION        1.15          1.028        0.072
  YS02001644           JUNCTION        1.13          0.920        0.000
  YS02001647           JUNCTION        0.92          0.900        0.000
  YS02001649           JUNCTION        1.07          1.050        0.000
  YS02001652           JUNCTION        0.81          1.128        0.002
  YS02001655           JUNCTION        0.53          1.200        0.000
  YS02001658           JUNCTION        0.26          1.300        0.000
  YS02001661           JUNCTION        0.04          0.612        0.778
  YS02001664           JUNCTION        0.01          0.308        1.002
  YS02001745           JUNCTION        0.01          1.280        0.070
  YS02001748           JUNCTION        0.12          1.190        0.000
  YS02001751           JUNCTION        0.37          1.200        0.000
  YS02001754           JUNCTION        0.67          1.150        0.000
  YS02001757           JUNCTION        1.15          1.210        0.000
  YS02001759           JUNCTION        1.04          1.201        0.009
  YS02001762           JUNCTION        1.00          1.150        0.000
  YS02001765           JUNCTION        0.94          1.100        0.000
  YS02001767           JUNCTION        0.89          1.030        0.000
  YS02001770           JUNCTION        0.84          0.920        0.000
  YS02001774           JUNCTION        0.97          1.006        0.044
  YS02001779           JUNCTION        0.64          0.680        0.000
  YS02001783           JUNCTION        0.54          0.442        1.158
  YS02001784           JUNCTION        0.51          0.326        1.164
  YS02001786           JUNCTION        0.40          0.079        1.351
  YS02001882           JUNCTION        0.48          0.680        0.150
  YS02001884           JUNCTION        0.49          0.696        0.174
  YS02001887           JUNCTION        0.53          0.784        0.166
  YS02001890           JUNCTION        0.55          0.760        0.000
  YS02001895           JUNCTION        0.47          0.566        0.184
  YS02001898           JUNCTION        0.46          0.533        0.207
  YS02001901           JUNCTION        0.52          0.681        0.189
  YS02001904           JUNCTION        0.51          0.641        0.209
  YS02001907           JUNCTION        0.83          0.950        0.000
  YS02001910           JUNCTION        0.57          0.927        0.173
  YS02001915           JUNCTION        0.48          0.854        0.146
  YS02001918           JUNCTION        0.39          0.720        0.090
  YS02001920           JUNCTION        0.40          0.861        0.279
  YS02001923           JUNCTION        0.09          0.453        0.367
  YS02001926           JUNCTION        0.11          0.504        0.396
  YS02001929           JUNCTION        0.01          0.280        0.500
  YS02006553           JUNCTION        0.86          0.977        0.213
  YS02006556           JUNCTION        0.68          0.925        0.425
  YS02006558           JUNCTION        0.67          0.918        0.482
  YS02006561           JUNCTION        0.35          0.115        1.035
  YS02163301           JUNCTION        1.19          0.977        0.053
  YS02163601           JUNCTION        1.23          1.080        0.000
  YS02164001           JUNCTION        1.16          1.050        0.050
  
  
  *********************
  Node Flooding Summary
  *********************
  
  Flooding refers to all water that overflows a node, whether it ponds or not.
  --------------------------------------------------------------------------
                                                             Total   Maximum
                                 Maximum   Time of Max       Flood    Ponded
                        Hours       Rate    Occurrence      Volume     Depth
  Node                 Flooded       LPS   days hr:min    10^6 ltr    Meters
  --------------------------------------------------------------------------
  WS02006112              0.01   1547.89      0  00:00       0.047     0.000
  WS02006234              0.01     11.32      0  01:47       0.000     0.000
  WS02006235              0.01     27.66      0  01:47       0.000     0.000
  WS02006238              0.01     25.61      0  01:47       0.000     0.000
  WS02006239              0.01      8.16      0  01:47       0.000     0.000
  WS02006240              0.01     10.46      0  01:47       0.000     0.000
  WS02006242              0.01     31.10      0  01:47       0.000     0.000
  WS02006243              0.01      3.88      0  01:47       0.000     0.000
  WS02006245              0.01      3.81      0  01:47       0.000     0.000
  WS02006247              0.01      2.78      0  01:47       0.000     0.000
  WS02006248              0.01     23.84      0  01:40       0.000     0.000
  WS02006249              0.85     78.86      0  02:56       0.209     0.000
  WS02006252              0.01      0.91      0  01:36       0.000     0.000
  WS02006256              1.07    284.15      0  00:10       0.395     0.000
  YS02001580              0.01    310.03      0  01:24       0.002     0.000
  YS02001583              0.01    150.89      0  01:24       0.001     0.000
  YS02001586              0.66    463.75      0  01:32       0.569     0.000
  YS02001600              0.01     25.30      0  01:24       0.000     0.000
  YS02001601              0.90   1379.16      0  01:30       1.926     0.000
  YS02001602              0.76     62.04      0  01:52       0.156     0.000
  YS02001605              0.01      9.68      0  01:25       0.000     0.000
  YS02001607              0.01    402.83      0  01:24       0.003     0.000
  YS02001610              0.67    769.32      0  01:32       1.026     0.000
  YS02001613              0.01    346.07      0  01:24       0.002     0.000
  YS02001616              0.01    144.34      0  01:25       0.003     0.000
  YS02001619              0.01    188.16      0  01:24       0.002     0.000
  YS02001622              0.01     56.08      0  01:24       0.000     0.000
  YS02001625              0.64   1372.46      0  01:33       1.525     0.000
  YS02001629              0.15    342.06      0  01:27       0.087     0.000
  YS02001633              0.01      6.48      0  01:25       0.000     0.000
  YS02001644              0.22   1154.31      0  01:27       0.472     0.000
  YS02001647              0.01     26.67      0  01:26       0.000     0.000
  YS02001649              0.01    164.89      0  01:26       0.003     0.000
  YS02001655              0.01     23.47      0  01:26       0.000     0.000
  YS02001658              0.01    456.30      0  01:26       0.001     0.000
  YS02001748              0.01     73.27      0  01:26       0.000     0.000
  YS02001751              0.01    108.61      0  01:26       0.000     0.000
  YS02001754              0.01     79.68      0  01:26       0.000     0.000
  YS02001757              0.01     54.99      0  01:26       0.000     0.000
  YS02001762              0.01     21.73      0  01:26       0.000     0.000
  YS02001765              0.01     13.06      0  01:26       0.000     0.000
  YS02001767              0.01    276.45      0  01:25       0.001     0.000
  YS02001770              0.01    273.15      0  01:25       0.002     0.000
  YS02001779              0.19    758.87      0  01:25       0.278     0.000
  YS02001890              0.16    288.83      0  02:36       0.078     0.000
  YS02001907              0.34   1924.80      0  02:37       1.186     0.000
  YS02163601              0.01     28.45      0  01:53       0.000     0.000
  
  
  **********************
  Storage Volume Summary
  **********************
  
  --------------------------------------------------------------------------------------------------
                         Average     Avg  Evap Exfil       Maximum     Max    Time of Max    Maximum
                          Volume    Pcnt  Pcnt  Pcnt        Volume    Pcnt     Occurrence    Outflow
  Storage Unit           1000 m3    Full  Loss  Loss       1000 m3    Full    days hr:min        LPS
  --------------------------------------------------------------------------------------------------
  CC-storage               2.419      38     0     0         4.539      71       0  02:12    1766.00
  JK-storage               0.069      24     0     0         0.213      73       0  02:47    2000.00
  
  
  ***********************
  Outfall Loading Summary
  ***********************
  
  -----------------------------------------------------------
                         Flow       Avg       Max       Total
                         Freq      Flow      Flow      Volume
  Outfall Node           Pcnt       LPS       LPS    10^6 ltr
  -----------------------------------------------------------
  CC-1                  31.44    683.00    683.00       4.026
  CC-2                  50.74    683.00    683.00       6.450
  JK-1                  12.93   1000.00   1000.00       2.446
  JK-2                   3.90   1000.00   1000.00       0.798
  WSC                   99.99    222.70    554.63       4.701
  -----------------------------------------------------------
  System                39.80   3588.70    554.63      18.421
  
  
  ********************
  Link Flow Summary
  ********************
  
  -----------------------------------------------------------------------------
                                 Maximum  Time of Max   Maximum    Max/    Max/
                                  |Flow|   Occurrence   |Veloc|    Full    Full
  Link                 Type          LPS  days hr:min     m/sec    Flow   Depth
  -----------------------------------------------------------------------------
  1                    CONDUIT    554.63     0  02:33      2.83    0.19    0.30
  WS02003060WS02003069 CONDUIT    552.63     0  02:31      1.64    0.22    0.34
  WS02003066WSF200     CONDUIT    536.14     0  02:31      2.85    0.09    0.22
  WS02003067WS02003066 CONDUIT    536.14     0  02:31      1.21    0.17    0.42
  WS02003069WS02003072 CONDUIT    552.95     0  02:32      1.37    0.27    0.39
  WS02003072WS02003073 CONDUIT    552.91     0  02:32      1.43    1.19    0.37
  WS02004401WS02004402 CONDUIT   1171.33     0  00:01      2.51    1.41    0.86
  WS02004402WS02004403 CONDUIT    907.51     0  00:01      2.15    1.30    0.88
  WS02004403WS02004404 CONDUIT    854.37     0  00:01      1.99    0.62    0.93
  WS02004404WS02004405 CONDUIT    797.19     0  00:01      2.28    7.81    0.96
  WS02004405WS02004406 CONDUIT    655.67     0  00:02      2.17    1.29    0.96
  WS02004406WS02004407 CONDUIT    537.07     0  02:55      1.04    0.24    0.63
  WS02004407WS02004409 CONDUIT    536.92     0  02:55      1.91    0.19    0.48
  WS02004409WS02004410 CONDUIT    536.60     0  02:55      1.32    0.69    0.67
  WS02004410WS02004411 CONDUIT    536.33     0  02:30      1.24    0.73    0.69
  WS02004411WS02004412 CONDUIT    536.23     0  02:30      1.16    0.76    0.69
  WS02004412WS02004413 CONDUIT    536.23     0  02:30      1.14    0.36    0.78
  WS02004413WS02003067 CONDUIT    536.14     0  02:30      1.11    0.23    0.59
  WS02006109WS02006110 CONDUIT   1306.78     0  00:00      3.14    2.51    1.00
  WS02006110WS02006113 CONDUIT    566.85     0  02:13      1.37    0.52    1.00
  WS02006111WS02006112 CONDUIT   2307.30     0  00:00      9.18    1.10    0.91
  WS02006112WS02006115 CONDUIT    899.27     0  00:00      1.16    0.53    1.00
  WS02006113WS02006111 CONDUIT   1176.04     0  00:00      2.47    1.41    1.00
  WS02006115WS02006116 CONDUIT   1098.16     0  00:01      1.72    1.41    1.00
  WS02006116WS02004401 CONDUIT   1677.78     0  00:00      2.92    2.31    0.84
  WS02006228WS02006109 CONDUIT    559.01     0  02:13      1.40    2.44    1.00
  WS02006229WS02006228 CONDUIT    558.46     0  02:13      1.24    1.85    1.00
  WS02006230WS02006229 CONDUIT    558.56     0  02:13      1.45   12.43    1.00
  WS02006231WS02006230 CONDUIT    628.89     0  01:47      1.71    9.54    1.00
  WS02006232WS02006231 CONDUIT    646.23     0  01:47      1.68    1.35    1.00
  WS02006234WS02006232 CONDUIT    640.29     0  01:47      1.66    1.30    1.00
  WS02006235WS02006234 CONDUIT    612.89     0  01:47      1.59    6.47    1.00
  WS02006238WS02006235 CONDUIT    430.37     0  01:41      1.69    0.96    1.00
  WS02006239WS02006238 CONDUIT    425.95     0  01:42      1.28    1.36    1.00
  WS02006240WS02006239 CONDUIT    428.09     0  01:42      1.33    1.35    1.00
  WS02006242WS02006240 CONDUIT    427.75     0  01:42      1.17    1.70    1.00
  WS02006243WS02006242 CONDUIT    426.90     0  01:42      1.45    0.91    1.00
  WS02006245WS02006243 CONDUIT    427.13     0  01:42      1.46    1.26    1.00
  WS02006247WS02006245 CONDUIT    427.25     0  01:42      1.43    3.39    1.00
  WS02006248WS02006247 CONDUIT    427.83     0  01:42      1.48    0.93    1.00
  WS02006249WS02006248 CONDUIT    428.62     0  01:42      1.45    2.35    1.00
  WS02006251WS02006249 CONDUIT    766.28     0  00:00      2.75    2.21    1.00
  WS02006252WS02006251 CONDUIT    453.14     0  00:00     17.90    1.66    1.00
  WS02006256WS02006235 CONDUIT    288.51     0  04:07      4.20    3.05    1.00
  WSF200WS02003060     CONDUIT    536.16     0  02:31      2.06    0.12    0.28
  YS02001580YS02001583 CONDUIT    339.11     0  01:24      1.28    1.31    1.00
  YS02001583YS02001586 CONDUIT    332.69     0  01:24      1.40    0.50    1.00
  YS02001586YS02001590 CONDUIT    318.88     0  01:47      1.37    0.56    1.00
  YS02001590YS02001593 CONDUIT    318.86     0  01:47      1.13    2.00    1.00
  YS02001593YS02001596 CONDUIT    318.41     0  01:48      1.74    0.50    1.00
  YS02001596YS02001600 CONDUIT    318.44     0  01:53      1.21    0.62    1.00
  YS02001600YS02001601 CONDUIT    318.90     0  01:53      1.13    0.55    1.00
  YS02001601YS02001602 CONDUIT    603.47     0  01:24      2.13    2.18    1.00
  YS02001602YS02001605 CONDUIT    603.66     0  01:24      2.13   12.77    1.00
  YS02001605YS02001607 CONDUIT    603.40     0  01:24      2.13    3.31    1.00
  YS02001607YS02001610 CONDUIT    574.29     0  01:24      0.82    0.55    1.00
  YS02001610YS02001613 CONDUIT    540.88     0  01:24      0.77    0.62    1.00
  YS02001613YS02001616 CONDUIT    493.34     0  01:24      0.74    0.42    1.00
  YS02001616YS02001619 CONDUIT    463.56     0  02:19      0.64    0.80    1.00
  YS02001619YS02001622 CONDUIT    978.58     0  01:24      1.59    1.44    1.00
  YS02001622YS02001625 CONDUIT    951.16     0  01:30      1.21    0.51    1.00
  YS02001625YS02001629 CONDUIT    829.81     0  02:05      1.06    0.39    1.00
  YS02001629YS02163301 CONDUIT    832.07     0  02:05      1.06    1.02    1.00
  YS02001633YS02163601 CONDUIT   1234.47     0  01:25      1.57    1.30    1.00
  YS02001641YS02001644 CONDUIT   1268.54     0  01:25      1.62    4.10    1.00
  YS02001644YS02001647 CONDUIT   1956.64     0  01:25      2.51    1.15    1.00
  YS02001647YS02001649 CONDUIT   1940.27     0  01:25      2.47    1.02    1.00
  YS02001649YS02001757 CONDUIT   2128.35     0  01:25      2.71    1.29    1.00
  YS02001652YS02001649 CONDUIT   1103.84     0  01:27      1.41    0.55    1.00
  YS02001655YS02001652 CONDUIT   1103.35     0  01:27      1.91    0.54    1.00
  YS02001658YS02001655 CONDUIT   1099.71     0  01:27      2.26    0.47    1.00
  YS02001661YS02001658 CONDUIT   1100.15     0  01:27      2.65    0.43    1.00
  YS02001664YS02001661 CONDUIT   1099.13     0  01:27      2.76    0.34    1.00
  YS02001745YS02001748 CONDUIT    740.04     0  01:26      2.63    0.28    1.00
  YS02001748YS02001751 CONDUIT    740.65     0  01:26      2.13    0.37    1.00
  YS02001751YS02001754 CONDUIT    741.64     0  01:26      1.90    0.36    1.00
  YS02001754YS02001757 CONDUIT    755.00     0  01:26      0.96    0.30    1.00
  YS02001757CaochengTiaoxuchi CONDUIT   3617.10     0  01:27      5.50    1.57    1.00
  YS02001759YS02001757 CONDUIT   1446.86     0  01:29      1.84    1.03    1.00
  YS02001762YS02001759 CONDUIT    816.39     0  01:37      1.04    0.94    1.00
  YS02001765YS02001762 CONDUIT    816.45     0  01:37      1.04    0.77    1.00
  YS02001767YS02001765 CONDUIT    816.55     0  01:37      1.04    1.03    1.00
  YS02001770YS02001767 CONDUIT    816.13     0  01:37      1.13    3.23    1.00
  YS02001774YS02001770 CONDUIT    780.63     0  01:25      0.99    0.50    1.00
  YS02001779YS02001774 CONDUIT    781.37     0  01:25      1.02    0.39    1.00
  YS02001783YS02001784 CONDUIT   1165.30     0  02:36      2.32    1.61    1.00
  YS02001784YS02001785 CONDUIT   1166.83     0  02:36      2.32    2.72    1.00
  YS02001786YS02001788 CONDUIT   1166.95     0  02:36      2.48    2.25    0.89
  YS02001788YS02001790 CONDUIT   1177.13     0  02:35      2.71    0.87    0.84
  YS02001790YS02001791 CONDUIT   1293.41     0  02:36      3.44    1.41    0.70
  YS02001791YS02001793 CONDUIT   1235.37     0  02:39      6.78    0.53    0.45
  YS02001793JiankangQianchi CONDUIT   1239.95     0  02:37      2.49    0.10    0.65
  YS02001882YS02001884 CONDUIT     31.09     0  02:23      0.13    0.04    1.00
  YS02001884YS02001887 CONDUIT     36.77     0  02:56      0.09    0.05    1.00
  YS02001887YS02001890 CONDUIT    805.42     0  02:36      1.03    1.38    1.00
  YS02001890YS02001895 CONDUIT    516.91     0  02:37      0.66    0.24    1.00
  YS02001895YS02001898 CONDUIT    516.89     0  02:37      0.66    0.90    1.00
  YS02001898YS02001901 CONDUIT    516.65     0  02:37      0.66    0.33    1.00
  YS02001901YS02001904 CONDUIT    516.81     0  02:36      0.66    0.80    1.00
  YS02001904YS02001907 CONDUIT    516.79     0  02:37      0.66    0.18    1.00
  YS02001907YS02006553 CONDUIT    807.25     0  02:48      0.90    0.95    1.00
  YS02001910YS02001907 CONDUIT   1458.31     0  02:37      1.86    0.82    1.00
  YS02001915YS02001910 CONDUIT   1457.02     0  02:37      1.86    0.72    1.00
  YS02001918YS02001915 CONDUIT    494.30     0  02:37      0.63    0.27    1.00
  YS02001920YS02001918 CONDUIT    494.31     0  02:37      0.65    0.48    1.00
  YS02001923YS02001920 CONDUIT    490.89     0  02:37      0.69    0.22    1.00
  YS02001926YS02001923 CONDUIT    487.29     0  02:37      0.94    0.70    1.00
  YS02001929YS02001926 CONDUIT    485.61     0  02:37      1.06    0.23    1.00
  YS02006553YS02006556 CONDUIT    807.03     0  02:48      1.03    0.69    1.00
  YS02006556YS02006558 CONDUIT    809.07     0  02:48      1.03    0.64    1.00
  YS02006558YS02006561 CONDUIT   1164.86     0  02:36      4.12    2.57    1.00
  YS02006561YS02001783 CONDUIT   1165.17     0  02:36      2.32    0.60    1.00
  YS02163301YS02001633 CONDUIT    832.34     0  02:05      1.06    0.78    1.00
  YS02163601YS02164001 CONDUIT   1229.54     0  01:25      1.57    1.09    1.00
  YS02164001YS02001641 CONDUIT   1249.61     0  01:25      1.59    1.71    1.00
  CC-R1                PUMP       683.00     0  01:06              1.00
  CC-R2                PUMP       683.00     0  00:10              1.00
  CC-S1                PUMP       200.00     0  00:00              1.00
  CC-S2                PUMP       200.00     0  00:00              1.00
  JK-R1                PUMP      1000.00     0  00:00              1.00
  JK-R2                PUMP      1000.00     0  00:00              1.00
  JK-S                 PUMP       300.00     0  00:10              1.00
  
  
  ***************************
  Flow Classification Summary
  ***************************
  
  -------------------------------------------------------------------------------------
                      Adjusted    ---------- Fraction of Time in Flow Class ---------- 
                       /Actual         Up    Down  Sub   Sup   Up    Down  Norm  Inlet 
  Conduit               Length    Dry  Dry   Dry   Crit  Crit  Crit  Crit  Ltd   Ctrl  
  -------------------------------------------------------------------------------------
  1                       1.00   0.00  0.00  0.00  0.00  1.00  0.00  0.00  0.33  0.00
  WS02003060WS02003069    1.00   0.00  0.00  0.00  0.96  0.04  0.00  0.00  0.74  0.00
  WS02003066WSF200        1.00   0.07  0.00  0.00  0.00  0.93  0.00  0.00  0.86  0.00
  WS02003067WS02003066    1.00   0.03  0.04  0.00  0.93  0.00  0.00  0.00  0.00  0.00
  WS02003069WS02003072    1.00   0.00  0.00  0.00  1.00  0.00  0.00  0.00  0.76  0.00
  WS02003072WS02003073    1.00   0.00  0.00  0.00  0.00  0.00  0.00  1.00  0.00  0.00
  WS02004401WS02004402    1.00   0.00  0.00  0.00  1.00  0.00  0.00  0.00  0.00  0.00
  WS02004402WS02004403    1.00   0.00  0.00  0.00  1.00  0.00  0.00  0.00  0.00  0.00
  WS02004403WS02004404    1.00   0.00  0.00  0.00  1.00  0.00  0.00  0.00  0.00  0.00
  WS02004404WS02004405    1.00   0.00  0.00  0.00  1.00  0.00  0.00  0.00  0.00  0.00
  WS02004405WS02004406    1.00   0.00  0.00  0.00  1.00  0.00  0.00  0.00  0.00  0.00
  WS02004406WS02004407    1.00   0.00  0.00  0.00  1.00  0.00  0.00  0.00  0.00  0.00
  WS02004407WS02004409    1.00   0.00  0.00  0.00  0.97  0.03  0.00  0.00  0.99  0.00
  WS02004409WS02004410    1.00   0.00  0.00  0.00  1.00  0.00  0.00  0.00  0.00  0.00
  WS02004410WS02004411    1.00   0.00  0.00  0.00  1.00  0.00  0.00  0.00  0.00  0.00
  WS02004411WS02004412    1.00   0.00  0.00  0.00  0.99  0.00  0.00  0.00  0.00  0.00
  WS02004412WS02004413    1.00   0.00  0.00  0.00  0.99  0.01  0.00  0.00  0.00  0.00
  WS02004413WS02003067    1.00   0.01  0.02  0.00  0.00  0.00  0.97  0.00  0.00  0.00
  WS02006109WS02006110    1.00   0.00  0.00  0.00  1.00  0.00  0.00  0.00  0.00  0.00
  WS02006110WS02006113    1.00   0.00  0.00  0.00  1.00  0.00  0.00  0.00  0.00  0.00
  WS02006111WS02006112    1.00   0.00  0.00  0.00  1.00  0.00  0.00  0.00  1.00  0.00
  WS02006112WS02006115    1.00   0.00  0.00  0.00  1.00  0.00  0.00  0.00  0.00  0.00
  WS02006113WS02006111    1.00   0.00  0.00  0.00  0.00  1.00  0.00  0.00  0.11  0.00
  WS02006115WS02006116    1.00   0.00  0.00  0.00  1.00  0.00  0.00  0.00  0.00  0.00
  WS02006116WS02004401    1.00   0.00  0.00  0.00  1.00  0.00  0.00  0.00  0.00  0.00
  WS02006228WS02006109    1.00   0.00  0.00  0.00  1.00  0.00  0.00  0.00  0.00  0.00
  WS02006229WS02006228    1.00   0.00  0.00  0.00  1.00  0.00  0.00  0.00  0.00  0.00
  WS02006230WS02006229    1.00   0.00  0.00  0.00  1.00  0.00  0.00  0.00  0.03  0.00
  WS02006231WS02006230    1.00   0.00  0.00  0.00  0.36  0.00  0.64  0.00  0.00  0.00
  WS02006232WS02006231    1.00   0.00  0.00  0.00  0.99  0.00  0.01  0.00  0.00  0.00
  WS02006234WS02006232    1.00   0.00  0.00  0.00  1.00  0.00  0.00  0.00  0.04  0.00
  WS02006235WS02006234    1.00   0.00  0.00  0.00  0.94  0.00  0.06  0.00  0.00  0.00
  WS02006238WS02006235    1.00   0.00  0.00  0.00  0.99  0.00  0.00  0.00  0.00  0.00
  WS02006239WS02006238    1.00   0.00  0.00  0.00  0.99  0.00  0.00  0.00  0.13  0.00
  WS02006240WS02006239    1.00   0.00  0.00  0.00  0.84  0.00  0.00  0.16  0.12  0.00
  WS02006242WS02006240    1.00   0.00  0.00  0.00  0.99  0.00  0.01  0.00  0.00  0.00
  WS02006243WS02006242    1.00   0.00  0.00  0.00  0.99  0.00  0.00  0.01  0.65  0.00
  WS02006245WS02006243    1.00   0.00  0.00  0.00  0.88  0.00  0.00  0.12  0.00  0.00
  WS02006247WS02006245    1.00   0.00  0.00  0.00  0.99  0.00  0.00  0.01  0.00  0.00
  WS02006248WS02006247    1.00   0.00  0.00  0.00  0.99  0.00  0.00  0.01  0.57  0.00
  WS02006249WS02006248    1.00   0.00  0.00  0.00  0.60  0.00  0.40  0.00  0.00  0.00
  WS02006251WS02006249    1.00   0.00  0.00  0.00  1.00  0.00  0.00  0.00  0.60  0.00
  WS02006252WS02006251    1.00   0.00  0.24  0.00  0.17  0.00  0.60  0.00  0.00  0.00
  WS02006256WS02006235    1.00   0.00  0.00  0.00  0.97  0.03  0.00  0.00  0.01  0.00
  WSF200WS02003060        1.00   0.00  0.07  0.00  0.32  0.61  0.00  0.00  0.69  0.00
  YS02001580YS02001583    1.00   0.17  0.48  0.00  0.35  0.00  0.00  0.00  0.69  0.00
  YS02001583YS02001586    1.00   0.30  0.20  0.00  0.49  0.00  0.00  0.00  0.69  0.00
  YS02001586YS02001590    1.00   0.15  0.00  0.00  0.60  0.03  0.00  0.22  0.32  0.00
  YS02001590YS02001593    1.00   0.15  0.00  0.00  0.24  0.00  0.61  0.00  0.00  0.00
  YS02001593YS02001596    1.00   0.15  0.00  0.00  0.26  0.02  0.00  0.57  0.02  0.00
  YS02001596YS02001600    1.00   0.15  0.00  0.00  0.35  0.01  0.00  0.49  0.04  0.00
  YS02001600YS02001601    1.00   0.15  0.00  0.00  0.85  0.00  0.00  0.00  0.59  0.00
  YS02001601YS02001602    1.00   0.15  0.00  0.00  0.85  0.00  0.00  0.00  0.00  0.00
  YS02001602YS02001605    1.00   0.15  0.00  0.00  0.85  0.00  0.00  0.00  0.00  0.00
  YS02001605YS02001607    1.00   0.15  0.00  0.00  0.85  0.00  0.00  0.00  0.00  0.00
  YS02001607YS02001610    1.00   0.15  0.00  0.00  0.85  0.00  0.00  0.00  0.01  0.00
  YS02001610YS02001613    1.00   0.15  0.00  0.00  0.85  0.00  0.00  0.00  0.00  0.00
  YS02001613YS02001616    1.00   0.15  0.00  0.00  0.85  0.00  0.00  0.00  0.00  0.00
  YS02001616YS02001619    1.00   0.15  0.00  0.00  0.85  0.00  0.00  0.00  0.00  0.00
  YS02001619YS02001622    1.00   0.15  0.00  0.00  0.85  0.00  0.00  0.00  0.29  0.00
  YS02001622YS02001625    1.00   0.15  0.00  0.00  0.85  0.00  0.00  0.00  0.03  0.00
  YS02001625YS02001629    1.00   0.15  0.02  0.00  0.32  0.00  0.52  0.00  0.00  0.00
  YS02001629YS02163301    1.00   0.16  0.00  0.00  0.84  0.00  0.00  0.00  0.00  0.00
  YS02001633YS02163601    1.00   0.00  0.00  0.00  1.00  0.00  0.00  0.00  0.14  0.00
  YS02001641YS02001644    1.00   0.00  0.00  0.00  1.00  0.00  0.00  0.00  0.00  0.00
  YS02001644YS02001647    1.00   0.00  0.16  0.00  0.84  0.00  0.00  0.00  0.00  0.00
  YS02001647YS02001649    1.00   0.00  0.16  0.00  0.52  0.31  0.00  0.00  0.57  0.00
  YS02001649YS02001757    1.00   0.00  0.00  0.00  0.67  0.33  0.00  0.00  0.46  0.00
  YS02001652YS02001649    1.00   0.00  0.00  0.00  0.99  0.01  0.00  0.00  0.71  0.00
  YS02001655YS02001652    1.00   0.00  0.00  0.00  0.34  0.01  0.00  0.65  0.06  0.00
  YS02001658YS02001655    1.00   0.00  0.15  0.00  0.59  0.25  0.00  0.00  0.68  0.00
  YS02001661YS02001658    1.00   0.15  0.00  0.00  0.45  0.40  0.00  0.00  0.73  0.00
  YS02001664YS02001661    1.00   0.15  0.00  0.00  0.68  0.17  0.00  0.00  0.85  0.00
  YS02001745YS02001748    1.00   0.00  0.00  0.00  0.22  0.02  0.00  0.76  0.07  0.00
  YS02001748YS02001751    1.00   0.00  0.00  0.00  0.78  0.22  0.00  0.00  0.77  0.00
  YS02001751YS02001754    1.00   0.00  0.00  0.00  0.32  0.00  0.00  0.68  0.03  0.00
  YS02001754YS02001757    1.00   0.00  0.00  0.00  1.00  0.00  0.00  0.00  0.79  0.00
  YS02001757CaochengTiaoxuchi    1.00   0.00  0.00  0.00  0.95  0.05  0.00  0.00  0.77  0.00
  YS02001759YS02001757    1.00   0.00  0.00  0.00  0.99  0.01  0.00  0.00  0.64  0.00
  YS02001762YS02001759    1.00   0.00  0.00  0.00  1.00  0.00  0.00  0.00  0.02  0.00
  YS02001765YS02001762    1.00   0.00  0.00  0.00  1.00  0.00  0.00  0.00  0.72  0.00
  YS02001767YS02001765    1.00   0.00  0.00  0.00  1.00  0.00  0.00  0.00  0.00  0.00
  YS02001770YS02001767    1.00   0.00  0.00  0.00  1.00  0.00  0.00  0.00  0.00  0.00
  YS02001774YS02001770    1.00   0.00  0.15  0.00  0.76  0.00  0.08  0.00  0.02  0.00
  YS02001779YS02001774    1.00   0.00  0.00  0.00  1.00  0.00  0.00  0.00  0.76  0.00
  YS02001783YS02001784    1.00   0.00  0.18  0.00  0.82  0.00  0.00  0.00  0.54  0.00
  YS02001784YS02001785    1.00   0.00  0.00  0.00  1.00  0.00  0.00  0.00  0.16  0.00
  YS02001786YS02001788    1.00   0.00  0.00  0.00  0.61  0.39  0.00  0.00  0.00  0.00
  YS02001788YS02001790    1.00   0.00  0.00  0.00  0.23  0.77  0.00  0.00  0.79  0.00
  YS02001790YS02001791    1.00   0.00  0.00  0.00  0.02  0.98  0.00  0.00  0.17  0.00
  YS02001791YS02001793    1.00   0.00  0.00  0.00  0.00  1.00  0.00  0.00  0.01  0.00
  YS02001793JiankangQianchi    1.00   0.00  0.00  0.00  0.97  0.03  0.00  0.00  0.96  0.00
  YS02001882YS02001884    1.00   0.16  0.00  0.00  0.84  0.00  0.00  0.00  0.00  0.00
  YS02001884YS02001887    1.00   0.11  0.03  0.00  0.86  0.00  0.00  0.00  0.00  0.00
  YS02001887YS02001890    1.00   0.00  0.00  0.00  0.92  0.00  0.08  0.00  0.00  0.00
  YS02001890YS02001895    1.00   0.00  0.16  0.00  0.83  0.00  0.00  0.00  0.00  0.00
  YS02001895YS02001898    1.00   0.17  0.00  0.00  0.82  0.00  0.01  0.00  0.00  0.00
  YS02001898YS02001901    1.00   0.17  0.00  0.00  0.83  0.00  0.00  0.00  0.01  0.00
  YS02001901YS02001904    1.00   0.17  0.00  0.00  0.83  0.00  0.00  0.00  0.00  0.00
  YS02001904YS02001907    1.00   0.00  0.17  0.00  0.83  0.00  0.00  0.00  0.00  0.00
  YS02001907YS02006553    1.00   0.00  0.05  0.00  0.95  0.00  0.00  0.00  0.00  0.00
  YS02001910YS02001907    1.00   0.00  0.00  0.00  0.92  0.01  0.00  0.06  0.12  0.00
  YS02001915YS02001910    1.00   0.00  0.00  0.00  0.94  0.06  0.00  0.00  0.16  0.00
  YS02001918YS02001915    1.00   0.00  0.00  0.00  0.94  0.06  0.00  0.00  0.74  0.00
  YS02001920YS02001918    1.00   0.00  0.00  0.00  1.00  0.00  0.00  0.00  0.01  0.00
  YS02001923YS02001920    1.00   0.00  0.00  0.00  1.00  0.00  0.00  0.00  0.92  0.00
  YS02001926YS02001923    1.00   0.00  0.12  0.00  0.09  0.00  0.78  0.00  0.00  0.00
  YS02001929YS02001926    1.00   0.00  0.15  0.00  0.85  0.00  0.00  0.00  0.82  0.00
  YS02006553YS02006556    1.00   0.01  0.00  0.00  0.99  0.00  0.00  0.00  0.03  0.00
  YS02006556YS02006558    1.00   0.00  0.00  0.00  1.00  0.00  0.00  0.00  0.00  0.00
  YS02006558YS02006561    1.00   0.18  0.00  0.00  0.08  0.74  0.00  0.00  0.20  0.00
  YS02006561YS02001783    1.00   0.18  0.00  0.00  0.14  0.68  0.00  0.00  0.68  0.00
  YS02163301YS02001633    1.00   0.00  0.16  0.00  0.84  0.00  0.00  0.00  0.00  0.00
  YS02163601YS02164001    1.00   0.00  0.13  0.00  0.87  0.00  0.00  0.00  0.00  0.00
  YS02164001YS02001641    1.00   0.00  0.12  0.00  0.87  0.00  0.00  0.00  0.05  0.00
  
  
  *************************
  Conduit Surcharge Summary
  *************************
  
  ----------------------------------------------------------------------------
                                                           Hours        Hours 
                         --------- Hours Full --------   Above Full   Capacity
  Conduit                Both Ends  Upstream  Dnstream   Normal Flow   Limited
  ----------------------------------------------------------------------------
  WS02003072WS02003073        0.01      0.01      0.01      1.04         0.01
  WS02004401WS02004402        0.01      0.01      0.01      0.01         0.01
  WS02004402WS02004403        0.01      0.01      0.01      0.01         0.01
  WS02004404WS02004405        0.01      0.01      0.01      2.67         0.01
  WS02004405WS02004406        0.01      0.01      0.01      0.75         0.01
  WS02006109WS02006110        0.75      0.76      1.71      0.82         0.01
  WS02006110WS02006113        0.01      0.01      1.71      0.01         0.01
  WS02006111WS02006112        0.01      0.01      1.87      0.01         0.01
  WS02006112WS02006115        0.01      0.01      0.81      0.01         0.01
  WS02006113WS02006111        0.01      0.01      0.01      0.01         0.01
  WS02006115WS02006116        0.01      0.01      0.01      0.01         0.01
  WS02006116WS02004401        0.01      0.01      0.01      0.02         0.01
  WS02006228WS02006109        1.68      1.71      1.68      2.18         1.68
  WS02006229WS02006228        1.68      1.69      1.68      1.90         1.67
  WS02006230WS02006229        1.76      1.85      1.76      2.94         1.76
  WS02006231WS02006230        0.75      0.75      0.86      2.59         0.01
  WS02006232WS02006231        0.83      0.83      1.71      0.87         0.01
  WS02006234WS02006232        1.63      1.63      1.71      0.86         0.86
  WS02006235WS02006234        1.01      1.01      1.64      2.50         0.01
  WS02006238WS02006235        1.66      1.66      1.70      0.01         0.01
  WS02006239WS02006238        1.68      1.69      1.68      1.84         1.54
  WS02006240WS02006239        1.66      1.67      1.66      1.84         1.47
  WS02006242WS02006240        1.67      1.67      1.75      2.00         0.01
  WS02006243WS02006242        1.67      1.67      1.71      0.01         0.03
  WS02006245WS02006243        1.66      1.67      1.67      1.08         0.98
  WS02006247WS02006245        1.66      1.67      1.66      2.45         1.65
  WS02006248WS02006247        1.67      1.67      1.67      0.01         0.04
  WS02006249WS02006248        1.66      1.66      1.66      2.43         0.01
  WS02006251WS02006249        1.66      1.67      1.66      1.91         1.61
  WS02006252WS02006251        1.96      1.96      2.03      1.97         0.01
  WS02006256WS02006235        2.51      2.54      6.34      1.15         0.01
  YS02001580YS02001583        0.82      0.82      0.89      0.01         0.01
  YS02001583YS02001586        0.83      0.83      0.99      0.01         0.01
  YS02001586YS02001590        1.00      1.00      1.08      0.01         0.01
  YS02001590YS02001593        1.07      1.08      1.09      1.17         0.01
  YS02001593YS02001596        1.09      1.09      1.19      0.01         0.01
  YS02001596YS02001600        1.23      1.23      1.36      0.01         0.01
  YS02001600YS02001601        1.43      1.43      1.75      0.01         0.01
  YS02001601YS02001602        1.68      1.68      1.78      1.38         0.01
  YS02001602YS02001605        1.61      1.61      1.68      2.35         0.01
  YS02001605YS02001607        1.55      1.61      1.55      1.72         1.55
  YS02001607YS02001610        1.05      1.05      1.08      0.01         0.01
  YS02001610YS02001613        1.05      1.05      1.08      0.01         0.01
  YS02001613YS02001616        1.00      1.00      1.05      0.01         0.01
  YS02001616YS02001619        0.98      0.98      1.00      0.01         0.01
  YS02001619YS02001622        0.98      0.98      0.98      1.09         0.94
  YS02001622YS02001625        0.98      0.98      1.18      0.01         0.01
  YS02001625YS02001629        0.93      0.93      1.18      0.01         0.01
  YS02001629YS02163301        1.17      1.17      1.19      0.12         0.20
  YS02001633YS02163601        1.21      1.21      1.23      0.47         0.44
  YS02001641YS02001644        1.13      1.15      1.13      1.79         1.12
  YS02001644YS02001647        0.92      0.92      1.13      0.02         0.01
  YS02001647YS02001649        0.92      0.92      1.07      0.01         0.01
  YS02001649YS02001757        1.07      1.07      1.15      0.21         0.24
  YS02001652YS02001649        0.85      0.85      1.07      0.01         0.01
  YS02001655YS02001652        0.53      0.53      0.81      0.01         0.01
  YS02001658YS02001655        0.26      0.26      0.53      0.01         0.01
  YS02001661YS02001658        0.04      0.04      0.26      0.01         0.01
  YS02001664YS02001661        0.01      0.01      0.09      0.01         0.01
  YS02001745YS02001748        0.01      0.01      0.12      0.01         0.01
  YS02001748YS02001751        0.21      0.21      0.37      0.01         0.01
  YS02001751YS02001754        0.37      0.37      0.67      0.01         0.01
  YS02001754YS02001757        0.74      0.74      1.15      0.01         0.01
  YS02001757CaochengTiaoxuchi        0.96      1.15      1.71      0.49         0.29
  YS02001759YS02001757        1.04      1.04      1.15      0.06         0.07
  YS02001762YS02001759        1.00      1.00      1.04      0.01         0.01
  YS02001765YS02001762        0.94      0.94      1.00      0.01         0.01
  YS02001767YS02001765        0.89      0.89      0.94      0.03         0.04
  YS02001770YS02001767        0.89      0.89      0.89      0.69         0.60
  YS02001774YS02001770        0.84      0.84      0.97      0.01         0.01
  YS02001779YS02001774        0.64      0.64      0.97      0.01         0.01
  YS02001783YS02001784        0.51      0.54      0.51      0.73         0.51
  YS02001784YS02001785        0.40      0.51      0.40      1.01         0.40
  YS02001786YS02001788        0.01      0.40      0.01      0.88         0.01
  YS02001790YS02001791        0.01      0.01      0.01      0.50         0.01
  YS02001793JiankangQianchi        0.01      0.01      5.86      0.01         0.01
  YS02001882YS02001884        0.48      0.48      0.49      0.01         0.01
  YS02001884YS02001887        0.52      0.52      0.53      0.01         0.01
  YS02001887YS02001890        0.55      0.55      0.56      0.11         0.01
  YS02001890YS02001895        0.47      0.47      0.58      0.01         0.01
  YS02001895YS02001898        0.46      0.46      0.47      0.01         0.01
  YS02001898YS02001901        0.47      0.47      0.52      0.01         0.01
  YS02001901YS02001904        0.51      0.51      0.52      0.01         0.01
  YS02001904YS02001907        0.51      0.51      0.86      0.01         0.01
  YS02001907YS02006553        1.02      1.02      1.10      0.01         0.01
  YS02001910YS02001907        0.57      0.57      0.83      0.01         0.01
  YS02001915YS02001910        0.48      0.48      0.57      0.01         0.01
  YS02001918YS02001915        0.39      0.39      0.48      0.01         0.01
  YS02001920YS02001918        0.39      0.39      0.40      0.01         0.01
  YS02001923YS02001920        0.34      0.34      0.40      0.01         0.01
  YS02001926YS02001923        0.09      0.09      0.11      0.01         0.01
  YS02001929YS02001926        0.01      0.01      0.11      0.01         0.01
  YS02006553YS02006556        0.68      0.68      0.86      0.01         0.01
  YS02006556YS02006558        0.78      0.78      0.88      0.01         0.01
  YS02006558YS02006561        0.42      0.66      0.42      0.96         0.42
  YS02006561YS02001783        0.35      0.35      0.54      0.01         0.01
  YS02163301YS02001633        1.19      1.19      1.22      0.01         0.01
  YS02163601YS02164001        1.16      1.16      1.23      0.01         0.01
  YS02164001YS02001641        1.15      1.16      1.15      0.92         0.84
  
  
  ***************
  Pumping Summary
  ***************
  
  ---------------------------------------------------------------------------------------------------------
                                                  Min       Avg       Max     Total     Power    % Time Off
                        Percent   Number of      Flow      Flow      Flow    Volume     Usage    Pump Curve
  Pump                 Utilized   Start-Ups       LPS       LPS       LPS  10^6 ltr     Kw-hr    Low   High
  ---------------------------------------------------------------------------------------------------------
  CC-R1                   20.60          27      0.00    683.00    683.00     4.051     75.57    0.0   15.8
  CC-R2                   33.09          78      0.00    683.00    683.00     6.510    116.91    0.0   43.6
  CC-S1                   29.67          75      0.00    200.00    200.00     1.709      9.75    0.0    0.0
  CC-S2                   26.63          11      0.00    200.00    200.00     1.534      8.67    0.0    0.0
  JK-R1                    8.50         125      0.00   1000.00   1000.00     2.448     23.83    0.0    0.0
  JK-R2                    2.79         120      0.00   1000.00   1000.00     0.804      4.56    0.0    0.0
  JK-S                    13.33          81      0.00    300.00    300.00     1.152     19.39    0.0    0.0
  

  Analysis begun on:  Wed Aug  9 16:36:54 2023
  Analysis ended on:  Wed Aug  9 16:37:31 2023
  Total elapsed time: 00:00:37