
  OWA STORM WATER MANAGEMENT MODEL - VERSION v5.1.14 (OWA 2022-07-31)
  --------------------------------------------------------------

  WARNING 04: minimum elevation drop used for Conduit WS02004404WS02004405
  WARNING 03: negative offset ignored for Link YS02001904YS02001907
  
  *********************************************************
  NOTE: The summary statistics displayed in this report are
  based on results found at every computational time step,  
  not just on results from each reporting time step.
  *********************************************************
  
  ****************
  Analysis Options
  ****************
  Flow Units ............... LPS
  Process Models:
    Rainfall/Runoff ........ YES
    RDII ................... NO
    Snowmelt ............... NO
    Groundwater ............ NO
    Flow Routing ........... YES
    Ponding Allowed ........ NO
    Water Quality .......... NO
  Infiltration Method ...... HORTON
  Flow Routing Method ...... DYNWAVE
  Surcharge Method ......... EXTRAN
  Starting Date ............ 08/28/2015 08:00:00
  Ending Date .............. 08/28/2015 16:00:00
  Antecedent Dry Days ...... 8.0
  Report Time Step ......... 00:01:00
  Wet Time Step ............ 00:01:00
  Dry Time Step ............ 00:01:00
  Routing Time Step ........ 30.00 sec
  Variable Time Step ....... YES
  Maximum Trials ........... 8
  Number of Threads ........ 4
  Head Tolerance ........... 0.001500 m
  
  
  **************************        Volume         Depth
  Runoff Quantity Continuity     hectare-m            mm
  **************************     ---------       -------
  Total Precipitation ......         9.811       161.960
  Evaporation Loss .........         0.000         0.000
  Infiltration Loss ........         0.251         4.147
  Surface Runoff ...........         9.501       156.844
  Final Storage ............         0.061         1.009
  Continuity Error (%) .....        -0.025
  
  
  **************************        Volume        Volume
  Flow Routing Continuity        hectare-m      10^6 ltr
  **************************     ---------     ---------
  Dry Weather Inflow .......         0.630         6.296
  Wet Weather Inflow .......         9.501        95.008
  Groundwater Inflow .......         0.000         0.000
  RDII Inflow ..............         0.000         0.000
  External Inflow ..........         0.105         1.045
  External Outflow .........         3.597        35.969
  Flooding Loss ............         6.634        66.343
  Evaporation Loss .........         0.000         0.000
  Exfiltration Loss ........         0.000         0.000
  Initial Stored Volume ....         0.303         3.031
  Final Stored Volume ......         0.321         3.212
  Continuity Error (%) .....        -0.136
  
  
  *************************
  Highest Continuity Errors
  *************************
  Node YS02001884 (4.75%)
  Node YS02001583 (-3.02%)
  Node HS02004842 (1.60%)
  Node WS02006252 (-1.45%)
  
  
  ***************************
  Time-Step Critical Elements
  ***************************
  Link WS02006280WS02006229 (38.69%)
  Link WS02006252WS02006251 (22.38%)
  Link YS02001791YS02001793 (12.93%)
  Link WS02006238WS02006235 (7.72%)
  Link WS02004404WS02004405 (5.21%)
  
  
  ********************************
  Highest Flow Instability Indexes
  ********************************
  Link WS02006252WS02006251 (37)
  Link WS02006238WS02006235 (33)
  Link WS02004404WS02004405 (29)
  Link YS02001602YS02001605 (28)
  Link YS02001605YS02001607 (27)
  
  
  *************************
  Routing Time Step Summary
  *************************
  Minimum Time Step           :     0.01 sec
  Average Time Step           :     2.23 sec
  Maximum Time Step           :     7.27 sec
  Percent in Steady State     :    -0.00
  Average Iterations per Step :     4.58
  Percent Not Converging      :    26.29
  
  
  ***************************
  Subcatchment Runoff Summary
  ***************************
  
  ------------------------------------------------------------------------------------------------------------------------------
                            Total      Total      Total      Total     Imperv       Perv      Total       Total     Peak  Runoff
                           Precip      Runon       Evap      Infil     Runoff     Runoff     Runoff      Runoff   Runoff   Coeff
  Subcatchment                 mm         mm         mm         mm         mm         mm         mm    10^6 ltr      LPS
  ------------------------------------------------------------------------------------------------------------------------------
  sub0                      76.87       0.00       0.00       1.01      70.25       4.37      74.62        0.06    44.14   0.971
  sub1                      76.87       0.00       0.00       1.72      67.17       6.74      73.91        0.49   299.72   0.961
  sub10                     76.87       0.00       0.00       1.22      69.44       4.94      74.38        0.82   509.44   0.968
  sub11                     76.87       0.00       0.00       1.20      69.46       4.95      74.42        0.86   567.80   0.968
  sub12                     76.87       0.00       0.00       1.95      65.71       8.05      73.76        0.64   454.16   0.959
  sub14                     76.87       0.00       0.00       1.37      68.70       5.55      74.25        0.71   452.09   0.966
  sub15                     76.87       0.00       0.00       5.31      52.84      17.76      70.60        1.21   695.25   0.918
  sub16                     76.87       0.00       0.00       5.50      50.60      19.87      70.47        0.74   466.02   0.917
  sub17                     76.87       0.00       0.00       5.36      51.35      19.24      70.59        0.61   378.45   0.918
  sub2                      76.87       0.00       0.00       7.56      47.53      20.88      68.41        0.64   305.83   0.890
  sub22                     76.87       0.00       0.00       8.03      43.04      25.03      68.07        4.30  2301.14   0.885
  sub23                     76.87       0.00       0.00       6.56      47.57      21.89      69.46        3.31  1906.34   0.904
  sub3                      76.87       0.00       0.00       8.23      47.49      20.22      67.71        1.52   660.30   0.881
  sub4                      76.87       0.00       0.00       1.91      67.00       6.55      73.55        1.53   731.54   0.957
  sub5                      76.87       0.00       0.00       1.06      70.19       4.32      74.51        0.84   516.16   0.969
  sub60                    232.27       0.00       0.00       1.95     203.24      25.93     229.17        3.01  2173.87   0.987
  sub61                    232.27       0.00       0.00       2.83     191.70      36.66     228.36        4.19  3028.83   0.983
  sub62                    232.27       0.00       0.00       1.30     212.44      17.29     229.73        6.29  4358.65   0.989
  sub63                    232.27       0.00       0.00       5.27     163.98      62.10     226.08        5.13  3564.97   0.973
  sub64                    232.27       0.00       0.00       2.66     196.26      32.19     228.45        5.49  3666.76   0.984
  sub65                    232.27       0.00       0.00       2.30     200.85      27.90     228.75        6.30  4128.78   0.985
  sub66                    232.27       0.00       0.00       6.62     163.85      60.74     224.60       10.47  5999.04   0.967
  sub67                    232.27       0.00       0.00       1.24     212.49      17.35     229.85        4.28  3167.19   0.990
  sub68                    232.27       0.00       0.00       2.35     198.61      30.18     228.78        6.30  4442.75   0.985
  sub69                    232.27       0.00       0.00       2.16     197.35      32.69     230.04        8.52  5501.10   0.990
  sub7                      76.87       0.00       0.00       1.35      68.72       5.57      74.29        0.25   168.15   0.966
  sub70                    232.27       0.00       0.00       7.35     153.15      71.63     224.78        6.49  3436.46   0.968
  sub71                    232.27       0.00       0.00       1.34     212.39      17.25     229.64        6.01  3957.10   0.989
  sub72                    232.27       0.00       0.00       1.19     214.63      15.07     229.70        3.16  1966.34   0.989
  sub8                      76.87       0.00       0.00       1.36      68.70       5.56      74.26        0.47   307.93   0.966
  sub9                      76.87       0.00       0.00       1.36      68.70       5.56      74.26        0.36   229.95   0.966
  
  
  ******************
  Node Depth Summary
  ******************
  
  ---------------------------------------------------------------------------------
                                 Average  Maximum  Maximum  Time of Max    Reported
                                   Depth    Depth      HGL   Occurrence   Max Depth
  Node                 Type       Meters   Meters   Meters  days hr:min      Meters
  ---------------------------------------------------------------------------------
  HS02004478           JUNCTION     0.25     1.60    10.83     0  01:47        1.60
  HS02004479           JUNCTION     0.33     1.69    10.89     0  01:45        1.67
  HS02004480           JUNCTION     0.30     1.67    10.91     0  01:45        1.64
  HS02004770           JUNCTION     0.30     1.42    11.25     0  01:43        1.42
  HS02004777           JUNCTION     0.32     1.48    11.28     0  01:43        1.47
  HS02004785           JUNCTION     0.21     1.49    11.39     0  01:43        1.38
  HS02004788           JUNCTION     0.18     1.42    11.32     0  01:43        1.41
  HS02004792           JUNCTION     0.24     1.60    11.12     0  01:43        1.60
  HS02004799           JUNCTION     0.36     1.76    10.97     0  01:45        1.76
  HS02004802           JUNCTION     0.35     1.81    10.94     0  01:47        1.81
  HS02004807           JUNCTION     0.33     1.92    11.09     0  01:45        1.92
  HS02004817           JUNCTION     0.63     2.42    11.27     0  01:45        2.41
  HS02004824           JUNCTION     0.20     2.01    11.41     0  01:48        2.01
  HS02004830           JUNCTION     0.20     2.00    11.47     0  01:45        1.99
  HS02004837           JUNCTION     0.17     1.96    11.54     0  01:45        1.92
  HS02004842           JUNCTION     0.46     2.22    11.49     0  01:45        2.22
  HS02004848           JUNCTION     0.15     2.01    11.62     0  01:45        1.91
  HS02004852           JUNCTION     0.16     2.05    11.56     0  01:45        1.97
  HS02004856           JUNCTION     0.22     2.07    11.50     0  01:45        2.03
  HS02004862           JUNCTION     0.18     2.00    11.38     0  01:45        2.00
  HS02004870           JUNCTION     0.17     2.04    11.33     0  01:45        2.02
  HS02004876           JUNCTION     0.23     2.15    11.18     0  01:45        2.12
  HS02004881           JUNCTION     0.16     1.86    10.89     0  01:49        1.86
  HS02004901           JUNCTION     0.30     1.42    11.24     0  01:43        1.42
  WS02001211           JUNCTION     0.63     0.82     5.66     0  01:54        0.82
  WS02001212           JUNCTION     0.37     0.58     5.65     0  01:54        0.58
  WS02001213           JUNCTION     0.59     0.88     5.64     0  01:53        0.88
  WS02003059           JUNCTION     0.65     0.95     5.63     0  01:53        0.95
  WS02003060           JUNCTION     0.39     0.70     5.63     0  01:54        0.70
  WS02003066           JUNCTION     0.23     0.46     6.01     0  01:50        0.46
  WS02003067           JUNCTION     0.54     0.89     6.21     0  01:49        0.89
  WS02003069           JUNCTION     0.43     0.79     5.37     0  01:54        0.79
  WS02003072           JUNCTION     0.49     0.82     5.19     0  01:54        0.82
  WS02003073           JUNCTION     0.30     0.52     4.59     0  01:55        0.52
  WS02004138           JUNCTION     0.13     0.14     7.39     0  00:29        0.14
  WS02004139           JUNCTION     0.56     0.75     5.66     0  01:53        0.75
  WS02004401           JUNCTION     0.78     1.95     7.95     0  01:50        1.95
  WS02004402           JUNCTION     0.79     1.89     7.85     0  01:49        1.89
  WS02004403           JUNCTION     0.80     1.81     7.74     0  01:49        1.81
  WS02004404           JUNCTION     0.86     1.82     7.67     0  01:50        1.81
  WS02004405           JUNCTION     0.84     1.76     7.61     0  01:50        1.75
  WS02004406           JUNCTION     0.83     1.65     7.48     0  01:50        1.64
  WS02004407           JUNCTION     0.27     0.99     7.30     0  01:50        0.99
  WS02004409           JUNCTION     0.55     1.42     7.19     0  01:50        1.41
  WS02004410           JUNCTION     0.55     1.33     7.05     0  01:49        1.33
  WS02004411           JUNCTION     0.55     1.23     6.91     0  01:49        1.22
  WS02004412           JUNCTION     0.55     1.12     6.76     0  01:50        1.12
  WS02004413           JUNCTION     0.68     1.16     6.63     0  01:50        1.15
  WS02006109           JUNCTION     1.02     2.64     9.26     0  01:43        2.64
  WS02006110           JUNCTION     0.94     2.43     9.01     0  01:50        2.43
  WS02006111           JUNCTION     0.45     1.82     8.53     0  01:50        1.82
  WS02006112           JUNCTION     1.00     2.49     8.37     0  01:50        2.49
  WS02006113           JUNCTION     0.53     1.88     8.78     0  01:49        1.88
  WS02006115           JUNCTION     0.71     2.06     8.20     0  01:49        2.06
  WS02006116           JUNCTION     0.78     2.05     8.09     0  01:50        2.05
  WS02006228           JUNCTION     1.08     3.03     9.68     0  01:45        3.03
  WS02006229           JUNCTION     1.10     3.24     9.93     0  01:45        3.22
  WS02006230           JUNCTION     1.03     2.65     9.39     0  01:40        2.65
  WS02006231           JUNCTION     0.76     2.24     9.36     0  03:34        2.19
  WS02006232           JUNCTION     0.85     2.18     9.22     0  01:40        2.18
  WS02006234           JUNCTION     0.74     1.96     9.12     0  01:36        1.96
  WS02006235           JUNCTION     0.76     2.00     9.16     0  01:36        1.93
  WS02006238           JUNCTION     0.78     2.12     9.27     0  03:20        2.12
  WS02006239           JUNCTION     0.72     2.03     9.24     0  03:20        2.03
  WS02006240           JUNCTION     0.67     2.10     9.39     0  03:34        1.64
  WS02006242           JUNCTION     0.71     1.55     8.82     0  01:29        1.55
  WS02006243           JUNCTION     0.60     1.48     8.90     0  01:30        1.48
  WS02006245           JUNCTION     0.59     1.56     9.04     0  01:30        1.38
  WS02006247           JUNCTION     0.60     1.47     8.97     0  01:30        1.32
  WS02006248           JUNCTION     0.54     1.10     8.69     0  01:30        1.10
  WS02006249           JUNCTION     0.56     1.09     8.69     0  01:31        1.09
  WS02006251           JUNCTION     0.71     2.16     9.83     0  01:49        2.16
  WS02006252           JUNCTION     0.52     1.50     9.74     0  00:00        1.50
  WS02006253           JUNCTION     0.80     3.13    10.78     0  01:50        3.13
  WS02006256           JUNCTION     1.11     2.35     9.28     0  00:00        2.35
  WS02006280           JUNCTION     0.32     1.75    10.02     0  01:45        1.74
  WS02006284           JUNCTION     0.58     1.96    10.36     0  01:52        1.96
  WS02006287           JUNCTION     0.32     1.76    10.72     0  01:47        1.76
  WSF200               JUNCTION     0.23     0.53     5.76     0  01:51        0.53
  YS02001580           JUNCTION     0.21     1.05     9.59     0  01:30        0.77
  YS02001583           JUNCTION     0.25     1.14     9.64     0  01:30        0.83
  YS02001586           JUNCTION     0.38     1.13     9.30     0  01:30        1.13
  YS02001590           JUNCTION     0.51     1.40     9.26     0  01:30        1.40
  YS02001593           JUNCTION     0.44     1.35     9.21     0  03:02        1.35
  YS02001596           JUNCTION     0.59     1.80     9.22     0  03:02        1.80
  YS02001600           JUNCTION     0.70     1.87     9.00     0  01:30        1.87
  YS02001601           JUNCTION     0.89     2.06     8.90     0  01:26        2.06
  YS02001602           JUNCTION     0.78     1.87     8.77     0  01:37        1.87
  YS02001605           JUNCTION     0.73     1.78     8.68     0  01:38        1.78
  YS02001607           JUNCTION     0.68     1.68     8.53     0  03:02        1.68
  YS02001610           JUNCTION     0.72     1.68     8.48     0  01:38        1.68
  YS02001613           JUNCTION     0.68     1.70     8.54     0  02:28        1.70
  YS02001616           JUNCTION     0.61     1.61     8.52     0  01:59        1.61
  YS02001619           JUNCTION     0.59     1.61     8.54     0  01:58        1.61
  YS02001622           JUNCTION     0.58     1.62     8.52     0  03:02        1.62
  YS02001625           JUNCTION     0.82     1.78     8.38     0  01:39        1.78
  YS02001629           JUNCTION     0.73     1.85     8.40     0  01:47        1.85
  YS02001633           JUNCTION     0.81     2.08     8.53     0  02:06        2.08
  YS02001641           JUNCTION     0.77     1.97     8.41     0  02:20        1.97
  YS02001644           JUNCTION     0.76     1.92     8.35     0  01:48        1.92
  YS02001647           JUNCTION     0.54     1.79     8.40     0  02:05        1.79
  YS02001649           JUNCTION     0.60     2.05     8.44     0  02:05        2.05
  YS02001652           JUNCTION     0.48     2.15     8.75     0  02:14        2.15
  YS02001655           JUNCTION     0.39     2.20     9.05     0  02:09        2.20
  YS02001658           JUNCTION     0.32     2.30     9.44     0  02:10        2.30
  YS02001661           JUNCTION     0.31     2.44     9.85     0  02:14        2.44
  YS02001664           JUNCTION     0.17     2.31    10.23     0  02:10        2.31
  YS02001745           JUNCTION     0.18     1.98     9.49     0  02:13        1.97
  YS02001748           JUNCTION     0.29     2.16     9.23     0  02:13        2.15
  YS02001751           JUNCTION     0.33     2.11     8.99     0  02:13        2.11
  YS02001754           JUNCTION     0.42     2.13     8.74     0  02:12        2.12
  YS02001757           JUNCTION     0.61     2.21     8.47     0  02:13        2.21
  YS02001759           JUNCTION     0.55     2.21     8.57     0  02:09        2.21
  YS02001762           JUNCTION     0.54     2.15     8.55     0  02:09        2.15
  YS02001765           JUNCTION     0.52     2.09     8.54     0  02:11        2.08
  YS02001767           JUNCTION     0.51     2.02     8.51     0  02:11        2.01
  YS02001770           JUNCTION     0.52     1.95     8.44     0  02:00        1.95
  YS02001774           JUNCTION     0.58     2.02     8.44     0  02:23        2.02
  YS02001779           JUNCTION     0.40     1.68     8.37     0  01:51        1.68
  YS02001783           JUNCTION     0.43     1.49     7.63     0  02:12        1.47
  YS02001784           JUNCTION     0.42     1.32     7.38     0  02:10        1.31
  YS02001786           JUNCTION     0.34     0.99     7.02     0  02:15        0.98
  YS02001788           JUNCTION     0.25     0.68     6.65     0  02:10        0.67
  YS02001790           JUNCTION     0.29     0.73     6.38     0  02:19        0.73
  YS02001791           JUNCTION     0.18     0.46     5.93     0  02:11        0.45
  YS02001793           JUNCTION     0.09     0.31     5.14     0  02:19        0.29
  YS02001882           JUNCTION     0.54     1.83     8.55     0  02:09        1.83
  YS02001884           JUNCTION     0.62     1.93     8.55     0  02:09        1.92
  YS02001887           JUNCTION     0.70     2.00     8.54     0  02:08        2.00
  YS02001890           JUNCTION     0.72     1.81     8.32     0  01:47        1.81
  YS02001895           JUNCTION     0.50     1.58     8.33     0  02:28        1.58
  YS02001898           JUNCTION     0.50     1.57     8.31     0  02:20        1.57
  YS02001901           JUNCTION     0.61     1.68     8.29     0  01:51        1.68
  YS02001904           JUNCTION     0.59     1.64     8.27     0  02:22        1.64
  YS02001907           JUNCTION     0.90     1.96     8.25     0  01:39        1.96
  YS02001910           JUNCTION     0.73     2.01     8.52     0  02:21        2.01
  YS02001915           JUNCTION     0.56     2.00     8.72     0  02:02        2.00
  YS02001918           JUNCTION     0.38     1.81     8.88     0  02:08        1.81
  YS02001920           JUNCTION     0.46     2.03     9.04     0  02:15        2.03
  YS02001923           JUNCTION     0.32     1.92     9.18     0  02:14        1.91
  YS02001926           JUNCTION     0.33     1.88     9.33     0  02:13        1.88
  YS02001929           JUNCTION     0.23     1.78     9.47     0  02:11        1.78
  YS02006553           JUNCTION     0.90     2.14     8.42     0  02:10        2.13
  YS02006556           JUNCTION     0.88     2.33     8.64     0  02:12        2.33
  YS02006558           JUNCTION     0.93     2.50     8.77     0  02:10        2.50
  YS02006561           JUNCTION     0.28     1.21     7.87     0  02:11        1.20
  YS02163301           JUNCTION     0.76     1.95     8.47     0  02:19        1.95
  YS02163601           JUNCTION     0.84     2.08     8.48     0  02:17        2.07
  YS02164001           JUNCTION     0.77     1.98     8.43     0  02:23        1.97
  YSB1154              JUNCTION     0.47     2.01    11.06     0  01:47        2.01
  YSB1171              JUNCTION     0.61     1.95    10.85     0  01:43        1.95
  YSB1174              JUNCTION     0.42     1.88    10.99     0  01:47        1.88
  YSB6556              JUNCTION     0.37     1.77    10.94     0  01:49        1.77
  CC-1                 OUTFALL      0.00     0.00     0.00     0  00:00        0.00
  CC-2                 OUTFALL      0.00     0.00     0.00     0  00:00        0.00
  JK-1                 OUTFALL      0.00     0.00     0.00     0  00:00        0.00
  JK-2                 OUTFALL      0.00     0.00     0.00     0  00:00        0.00
  WSC                  OUTFALL      0.29     0.52     1.19     0  01:55        0.52
  CC-storage           STORAGE      0.83     1.73     7.23     0  02:37        1.73
  JK-storage           STORAGE      1.52     4.24     5.04     0  02:24        4.20
  XR-storage           STORAGE      7.76     9.26     7.26     0  08:00        9.26
  
  
  *******************
  Node Inflow Summary
  *******************
  
  -------------------------------------------------------------------------------------------------
                                  Maximum  Maximum                  Lateral       Total        Flow
                                  Lateral    Total  Time of Max      Inflow      Inflow     Balance
                                   Inflow   Inflow   Occurrence      Volume      Volume       Error
  Node                 Type           LPS      LPS  days hr:min    10^6 ltr    10^6 ltr     Percent
  -------------------------------------------------------------------------------------------------
  HS02004478           JUNCTION      0.00  2306.90     0  01:47           0        9.68      -0.007
  HS02004479           JUNCTION      0.00   488.86     0  01:45           0        0.94       0.073
  HS02004480           JUNCTION      0.00  2146.41     0  01:44           0         7.1       0.031
  HS02004770           JUNCTION   1906.34  1906.34     0  01:51        3.31        3.56       0.086
  HS02004777           JUNCTION      0.03   771.69     0  01:42    0.000864        2.01       0.259
  HS02004785           JUNCTION      0.15   788.05     0  01:42     0.00432        2.01       0.021
  HS02004788           JUNCTION    696.92   869.05     0  01:50        1.26        3.27      -0.014
  HS02004792           JUNCTION   2301.42  3162.38     0  01:51        4.31        7.57       0.007
  HS02004799           JUNCTION    452.09  1750.52     0  01:43       0.707        6.51       0.044
  HS02004802           JUNCTION      0.00  1233.10     0  01:50           0        2.78       0.140
  HS02004807           JUNCTION    567.80  1759.88     0  01:50       0.865        3.05       0.131
  HS02004817           JUNCTION      0.60  1196.99     0  01:54      0.0173        2.24       0.758
  HS02004824           JUNCTION    731.59  1308.28     0  01:52        1.54        2.46       0.022
  HS02004830           JUNCTION      0.15   689.40     0  01:43     0.00432        1.13       0.132
  HS02004837           JUNCTION    515.79   896.49     0  01:43           1        1.46       0.070
  HS02004842           JUNCTION      0.00   895.26     0  01:44           0       0.814       1.626
  HS02004848           JUNCTION    660.30  1126.58     0  01:44        1.52         2.1       0.011
  HS02004852           JUNCTION      0.00  1107.65     0  01:45           0        1.89      -0.010
  HS02004856           JUNCTION    229.95  1224.92     0  01:45       0.357        2.24       0.024
  HS02004862           JUNCTION    306.03  1238.99     0  01:45       0.643        2.88      -0.036
  HS02004870           JUNCTION    307.93  1246.01     0  01:54       0.475        3.33       0.008
  HS02004876           JUNCTION    299.72  1512.15     0  01:53       0.491        3.82       0.030
  HS02004881           JUNCTION    168.15  1664.07     0  01:50        0.25        4.07       0.000
  HS02004901           JUNCTION    466.02   714.63     0  01:50       0.738        1.15       0.157
  WS02001211           JUNCTION      7.35   204.41     0  02:46       0.212        5.44       0.611
  WS02001212           JUNCTION      0.00   209.78     0  02:46           0        5.41       0.290
  WS02001213           JUNCTION      0.00   212.92     0  02:46           0        5.39       0.332
  WS02003059           JUNCTION      0.00   217.84     0  03:21           0        5.38       0.595
  WS02003060           JUNCTION     16.53  1536.24     0  01:53       0.476        14.8       0.099
  WS02003066           JUNCTION      0.00  1333.84     0  01:50           0        8.97       0.016
  WS02003067           JUNCTION      0.00  1334.01     0  01:50           0        8.98       0.049
  WS02003069           JUNCTION      0.32  1535.95     0  01:54     0.00922        14.8       0.104
  WS02003072           JUNCTION      0.00  1535.56     0  01:54           0        14.8       0.142
  WS02003073           JUNCTION      1.82  1537.35     0  01:55      0.0524        14.8       0.146
  WS02004138           JUNCTION      0.00   380.00     0  00:00           0        5.25       0.053
  WS02004139           JUNCTION      0.32   191.26     0  00:29     0.00924        5.26       0.510
  WS02004401           JUNCTION      0.00  1333.75     0  01:50           0        9.08       0.118
  WS02004402           JUNCTION      0.00  1333.86     0  01:50           0        9.07       0.118
  WS02004403           JUNCTION      0.00  1333.72     0  01:49           0        9.06       0.115
  WS02004404           JUNCTION      0.16  1334.89     0  01:50     0.00467        9.06       0.095
  WS02004405           JUNCTION      0.04  1334.20     0  01:50      0.0011        9.05       0.142
  WS02004406           JUNCTION      0.00  1334.28     0  01:50           0        9.03       0.238
  WS02004407           JUNCTION      0.00  1334.10     0  01:50           0        9.01       0.017
  WS02004409           JUNCTION      0.00  1334.03     0  01:50           0        9.01       0.036
  WS02004410           JUNCTION      0.00  1334.03     0  01:50           0        9.01       0.054
  WS02004411           JUNCTION      0.00  1334.09     0  01:50           0           9       0.068
  WS02004412           JUNCTION      0.00  1334.39     0  01:50           0           9       0.089
  WS02004413           JUNCTION      0.00  1334.58     0  01:50           0        8.99       0.155
  WS02006109           JUNCTION      1.23  1290.63     0  01:48      0.0354        8.88       0.093
  WS02006110           JUNCTION      0.00  1124.57     0  02:15           0        8.52       0.096
  WS02006111           JUNCTION      0.00  1124.73     0  02:15           0        8.51       0.013
  WS02006112           JUNCTION    378.45  1333.76     0  01:50       0.606        9.11       0.200
  WS02006113           JUNCTION      0.00  1124.63     0  02:15           0        8.51       0.021
  WS02006115           JUNCTION      0.00  1333.37     0  01:49           0        9.09       0.077
  WS02006116           JUNCTION      0.00  1333.64     0  01:50           0        9.09       0.053
  WS02006228           JUNCTION      0.00  1289.76     0  01:48           0        8.85       0.057
  WS02006229           JUNCTION      0.00  2308.82     0  01:47           0        11.6       0.055
  WS02006230           JUNCTION     10.28  1027.44     0  01:47       0.296        4.78       0.172
  WS02006231           JUNCTION      0.00   525.61     0  03:30           0        3.33      -0.083
  WS02006232           JUNCTION      0.00   525.02     0  03:30           0        3.33       0.179
  WS02006234           JUNCTION      0.00   520.99     0  03:30           0        3.33      -0.149
  WS02006235           JUNCTION      0.00   516.97     0  03:32           0        3.34       0.121
  WS02006238           JUNCTION      0.00   427.92     0  03:29           0        2.94      -0.253
  WS02006239           JUNCTION      0.00   427.01     0  03:28           0        2.93      -0.101
  WS02006240           JUNCTION      0.00   427.11     0  03:28           0        2.93      -0.032
  WS02006242           JUNCTION      0.00   427.38     0  03:28           0        2.93       0.049
  WS02006243           JUNCTION      0.00   427.91     0  03:28           0        2.48      -0.127
  WS02006245           JUNCTION      0.00   428.41     0  03:28           0        2.49       0.397
  WS02006247           JUNCTION      0.00   429.57     0  03:31           0        2.49       0.049
  WS02006248           JUNCTION      0.00   430.37     0  03:31           0         2.8      -0.088
  WS02006249           JUNCTION      0.00  1379.01     0  01:50           0        7.37       0.101
  WS02006251           JUNCTION      0.08  1707.64     0  01:50     0.00222        7.66       0.035
  WS02006252           JUNCTION      0.00   928.95     0  01:50           0        4.62      -1.427
  WS02006253           JUNCTION     44.14  1708.02     0  01:50      0.0604         4.2       0.050
  WS02006256           JUNCTION      0.00   450.00     0  00:11           0        1.92      -0.676
  WS02006280           JUNCTION      0.00  2306.86     0  01:48           0        9.66       0.015
  WS02006284           JUNCTION      0.10  2306.62     0  01:47     0.00275        9.66      -0.003
  WS02006287           JUNCTION      0.00  2306.73     0  01:47           0        9.66       0.008
  WSF200               JUNCTION      0.00  1333.82     0  01:50           0        8.97       0.009
  YS02001580           JUNCTION      0.00    62.59     0  01:29           0     0.00435       1.721
  YS02001583           JUNCTION      0.00    96.15     0  01:29           0      0.0162      -2.930
  YS02001586           JUNCTION   3436.46  3436.46     0  02:14        6.49        6.51       0.016
  YS02001590           JUNCTION      0.00   318.99     0  03:02           0        2.32      -0.038
  YS02001593           JUNCTION      0.00   318.58     0  02:23           0        2.32       0.008
  YS02001596           JUNCTION      0.00   318.19     0  01:43           0        2.32      -0.006
  YS02001600           JUNCTION      0.00   318.18     0  02:53           0        2.32       0.019
  YS02001601           JUNCTION   5501.10  5818.61     0  02:13        8.52        10.8       0.007
  YS02001602           JUNCTION      0.00   502.33     0  01:29           0        3.36       0.016
  YS02001605           JUNCTION      0.00   502.32     0  01:29           0        3.06       0.024
  YS02001607           JUNCTION      0.00   502.24     0  01:29           0        3.06       0.059
  YS02001610           JUNCTION      0.00   956.41     0  02:10           0        4.71       0.055
  YS02001613           JUNCTION      0.00   620.24     0  02:10           0        3.26       0.047
  YS02001616           JUNCTION      0.00   620.14     0  02:16           0        3.27       0.009
  YS02001619           JUNCTION   5999.04  5999.04     0  02:14        10.5        12.1      -0.002
  YS02001622           JUNCTION      0.00  1054.01     0  02:22           0        7.04      -0.001
  YS02001625           JUNCTION      0.00  1505.50     0  02:20           0        8.18       0.120
  YS02001629           JUNCTION      0.00  1139.01     0  02:19           0        5.44       0.017
  YS02001633           JUNCTION   4128.98  4128.98     0  02:13         6.3        9.72       0.035
  YS02001641           JUNCTION      0.00  1340.22     0  01:39           0        6.84       0.043
  YS02001644           JUNCTION   3666.80  5418.64     0  02:13        5.49        13.2       0.025
  YS02001647           JUNCTION      0.00  1706.98     0  01:39           0        7.91       0.010
  YS02001649           JUNCTION      0.00  2933.70     0  02:13           0          12       0.001
  YS02001652           JUNCTION      0.00  2429.25     0  02:13           0        4.87      -0.023
  YS02001655           JUNCTION      0.15  2731.44     0  02:16     0.00443        4.98       0.012
  YS02001658           JUNCTION      0.00  2783.77     0  02:13           0        4.99      -0.031
  YS02001661           JUNCTION      0.00  2783.76     0  02:13           0        4.99       0.008
  YS02001664           JUNCTION   3564.97  3564.97     0  02:13        5.13        5.13      -0.004
  YS02001745           JUNCTION   2173.88  2173.88     0  02:13        3.01        3.01       0.042
  YS02001748           JUNCTION      0.04  2173.68     0  02:13      0.0013        3.01      -0.064
  YS02001751           JUNCTION      0.01  2172.65     0  02:13    0.000317        3.01       0.035
  YS02001754           JUNCTION      0.26  2174.73     0  02:13     0.00749        3.02      -0.048
  YS02001757           JUNCTION      0.00  3669.76     0  02:13           0        19.1       0.035
  YS02001759           JUNCTION   3028.87  3028.87     0  02:13        4.19        6.64      -0.005
  YS02001762           JUNCTION      0.00   768.65     0  01:52           0        2.92       0.007
  YS02001765           JUNCTION      0.00   768.55     0  01:52           0        2.91       0.008
  YS02001767           JUNCTION      0.54   768.57     0  01:53      0.0154        2.92       0.002
  YS02001770           JUNCTION   4358.80  5077.81     0  02:13         6.3        6.81      -0.008
  YS02001774           JUNCTION      0.00   852.14     0  02:19           0        1.69       0.077
  YS02001779           JUNCTION      0.01   851.78     0  02:23    0.000144        1.65      -0.006
  YS02001783           JUNCTION      0.00  1321.83     0  02:14           0        7.48       0.003
  YS02001784           JUNCTION      1.06  1322.95     0  02:12      0.0305        7.51       0.007
  YS02001786           JUNCTION      0.06  1322.73     0  02:12     0.00162        7.51       0.009
  YS02001788           JUNCTION      0.07  1322.89     0  02:14     0.00204        7.51       0.004
  YS02001790           JUNCTION      0.15  1328.76     0  02:11     0.00446        7.52       0.034
  YS02001791           JUNCTION      0.00  1369.99     0  02:11           0        7.52      -0.048
  YS02001793           JUNCTION      0.00  1355.92     0  02:11           0        7.52       0.003
  YS02001882           JUNCTION      0.00    32.89     0  01:19           0      0.0154       4.229
  YS02001884           JUNCTION      0.00    46.73     0  01:17           0      0.0521       4.990
  YS02001887           JUNCTION   3167.64  3167.64     0  02:13        4.29        4.32       0.098
  YS02001890           JUNCTION      0.00  2052.03     0  02:16           0        4.03       0.126
  YS02001895           JUNCTION      0.00   518.69     0  02:28           0        2.41       0.082
  YS02001898           JUNCTION      0.00   518.55     0  02:26           0        2.41      -0.004
  YS02001901           JUNCTION      0.00   518.41     0  02:10           0        2.41       0.142
  YS02001904           JUNCTION      0.00   518.42     0  02:26           0        2.42       0.111
  YS02001907           JUNCTION      0.00  4670.95     0  02:12           0        11.1       0.165
  YS02001910           JUNCTION      0.00  1993.22     0  02:21           0        6.95       0.105
  YS02001915           JUNCTION   3957.12  5178.80     0  02:13        6.01        8.99       0.015
  YS02001918           JUNCTION      0.00  1681.48     0  02:14           0        3.19       0.009
  YS02001920           JUNCTION      2.87  1681.84     0  02:15      0.0827        3.19       0.029
  YS02001923           JUNCTION      0.04  1678.99     0  02:14     0.00109        3.11       0.001
  YS02001926           JUNCTION      0.05  1678.58     0  02:16      0.0015        3.11       0.009
  YS02001929           JUNCTION   1966.34  1966.34     0  02:13        3.16        3.16      -0.001
  YS02006553           JUNCTION      0.00  2160.53     0  02:15           0        4.78       0.252
  YS02006556           JUNCTION      0.00  2160.81     0  02:15           0         4.8       0.171
  YS02006558           JUNCTION   4443.63  4443.63     0  02:13        6.32        9.39       0.037
  YS02006561           JUNCTION      0.00  1321.50     0  02:15           0        7.48       0.001
  YS02163301           JUNCTION      0.00  1138.93     0  02:19           0        5.44       0.031
  YS02163601           JUNCTION      0.11  1340.95     0  01:39     0.00317        6.83       0.077
  YS02164001           JUNCTION      0.00  1340.94     0  01:39           0        6.83       0.042
  YSB1154              JUNCTION    516.16   516.16     0  01:51       0.844       0.845       0.176
  YSB1171              JUNCTION      0.00  1196.58     0  01:50           0        1.67       0.387
  YSB1174              JUNCTION    454.16   454.16     0  01:50       0.645       0.645       0.196
  YSB6556              JUNCTION      0.00   516.23     0  01:51           0       0.846       0.135
  CC-1                 OUTFALL       0.00  1024.50     0  00:01           0        6.53       0.000
  CC-2                 OUTFALL       0.00  1024.50     0  00:01           0        8.93       0.000
  JK-1                 OUTFALL       0.00  1500.00     0  01:18           0        2.04       0.000
  JK-2                 OUTFALL       0.00  1500.00     0  01:21           0         3.7       0.000
  WSC                  OUTFALL       0.00  1537.21     0  01:55           0        14.8       0.000
  CC-storage           STORAGE       0.00  3272.24     0  01:52           0        21.2      -0.150
  JK-storage           STORAGE       0.00  1354.59     0  02:11           0        7.67      -0.211
  XR-storage           STORAGE     200.00   200.00     0  00:00        5.76        6.36       0.001
  
  
  **********************
  Node Surcharge Summary
  **********************
  
  Surcharging occurs when water rises above the top of the highest conduit.
  ---------------------------------------------------------------------
                                               Max. Height   Min. Depth
                                   Hours       Above Crown    Below Rim
  Node                 Type      Surcharged         Meters       Meters
  ---------------------------------------------------------------------
  HS02004478           JUNCTION        0.61          0.679        0.261
  HS02004479           JUNCTION        0.75          0.890        0.160
  HS02004480           JUNCTION        0.79          0.960        0.140
  HS02004770           JUNCTION        0.69          0.720        0.000
  HS02004777           JUNCTION        0.69          0.780        0.000
  HS02004785           JUNCTION        0.64          0.790        0.000
  HS02004788           JUNCTION        0.63          0.720        0.000
  HS02004792           JUNCTION        0.75          0.900        0.000
  HS02004799           JUNCTION        0.88          1.060        0.000
  HS02004802           JUNCTION        0.79          1.101        0.109
  HS02004807           JUNCTION        0.78          1.220        0.000
  HS02004817           JUNCTION        1.44          1.722        0.018
  HS02004824           JUNCTION        0.63          1.310        0.000
  HS02004830           JUNCTION        0.60          1.302        0.028
  HS02004837           JUNCTION        0.56          1.255        0.085
  HS02004842           JUNCTION        0.70          1.520        0.000
  HS02004848           JUNCTION        0.53          1.314        0.056
  HS02004852           JUNCTION        0.55          1.347        0.073
  HS02004856           JUNCTION        0.54          1.300        0.000
  HS02004862           JUNCTION        0.58          1.300        0.000
  HS02004870           JUNCTION        0.60          1.344        0.056
  HS02004876           JUNCTION        0.70          1.451        0.109
  HS02004881           JUNCTION        0.68          1.164        0.286
  HS02004901           JUNCTION        0.70          0.720        0.000
  WS02004401           JUNCTION        1.76          0.952        0.708
  WS02004402           JUNCTION        1.79          0.888        0.852
  WS02004403           JUNCTION        1.80          0.810        1.220
  WS02004404           JUNCTION        1.97          0.816        1.964
  WS02004405           JUNCTION        1.93          0.764        2.036
  WS02004406           JUNCTION        1.90          0.647        1.803
  WS02004409           JUNCTION        1.16          0.421        1.939
  WS02004410           JUNCTION        1.10          0.327        2.213
  WS02004411           JUNCTION        1.05          0.228        2.302
  WS02004412           JUNCTION        0.92          0.121        2.189
  WS02004413           JUNCTION        1.54          0.155        2.045
  WS02006109           JUNCTION        2.28          1.820        0.000
  WS02006110           JUNCTION        2.10          1.516        0.334
  WS02006111           JUNCTION        1.50          1.015        0.855
  WS02006112           JUNCTION        2.16          1.488        0.192
  WS02006113           JUNCTION        1.52          1.082        0.848
  WS02006115           JUNCTION        1.70          1.053        1.197
  WS02006116           JUNCTION        1.71          0.993        1.297
  WS02006228           JUNCTION        2.28          2.200        0.000
  WS02006229           JUNCTION        1.09          1.055        0.015
  WS02006230           JUNCTION        2.00          1.570        0.000
  WS02006231           JUNCTION        2.04          1.530        0.000
  WS02006232           JUNCTION        2.22          1.480        0.000
  WS02006234           JUNCTION        2.00          1.240        0.000
  WS02006235           JUNCTION        2.04          1.290        0.000
  WS02006238           JUNCTION        2.13          1.402        0.028
  WS02006239           JUNCTION        2.07          1.290        0.000
  WS02006240           JUNCTION        2.09          1.390        0.000
  WS02006242           JUNCTION        2.16          0.820        0.000
  WS02006243           JUNCTION        2.10          0.770        0.000
  WS02006245           JUNCTION        2.10          0.850        0.000
  WS02006247           JUNCTION        2.13          0.760        0.000
  WS02006248           JUNCTION        2.08          0.380        0.000
  WS02006249           JUNCTION        2.11          0.390        0.000
  WS02006251           JUNCTION        2.01          1.133        0.047
  WS02006252           JUNCTION        2.55          1.100        0.000
  WS02006253           JUNCTION        2.01          2.095        0.385
  WS02006256           JUNCTION        6.97          2.050        0.000
  WS02006280           JUNCTION        0.91          0.699        0.081
  WS02006284           JUNCTION        0.82          0.680        0.120
  WS02006287           JUNCTION        0.72          0.761        0.129
  YS02001580           JUNCTION        1.55          0.450        0.000
  YS02001583           JUNCTION        1.55          0.500        0.000
  YS02001586           JUNCTION        1.66          0.510        0.000
  YS02001590           JUNCTION        1.73          0.750        0.000
  YS02001593           JUNCTION        1.73          0.730        0.110
  YS02001596           JUNCTION        1.84          1.070        0.000
  YS02001600           JUNCTION        1.94          1.190        0.000
  YS02001601           JUNCTION        2.18          1.440        0.000
  YS02001602           JUNCTION        2.10          1.270        0.000
  YS02001605           JUNCTION        2.06          1.180        0.000
  YS02001607           JUNCTION        1.69          0.680        0.000
  YS02001610           JUNCTION        1.71          0.680        0.000
  YS02001613           JUNCTION        1.68          0.700        0.000
  YS02001616           JUNCTION        1.64          0.610        0.000
  YS02001619           JUNCTION        1.63          0.610        0.000
  YS02001622           JUNCTION        1.63          0.620        0.000
  YS02001625           JUNCTION        1.79          0.780        0.000
  YS02001629           JUNCTION        1.56          0.470        0.000
  YS02001633           JUNCTION        1.80          1.060        0.000
  YS02001641           JUNCTION        1.73          0.971        0.129
  YS02001644           JUNCTION        1.70          0.920        0.000
  YS02001647           JUNCTION        1.42          0.789        0.111
  YS02001649           JUNCTION        1.50          1.050        0.000
  YS02001652           JUNCTION        1.36          1.122        0.008
  YS02001655           JUNCTION        1.24          1.200        0.000
  YS02001658           JUNCTION        0.88          1.300        0.000
  YS02001661           JUNCTION        0.50          1.373        0.017
  YS02001664           JUNCTION        0.28          1.310        0.000
  YS02001745           JUNCTION        0.26          0.976        0.374
  YS02001748           JUNCTION        0.75          1.078        0.112
  YS02001751           JUNCTION        1.02          1.107        0.093
  YS02001754           JUNCTION        1.29          1.077        0.073
  YS02001757           JUNCTION        1.53          1.207        0.003
  YS02001759           JUNCTION        1.45          1.210        0.000
  YS02001762           JUNCTION        1.43          1.150        0.000
  YS02001765           JUNCTION        1.40          1.087        0.013
  YS02001767           JUNCTION        1.39          1.017        0.013
  YS02001770           JUNCTION        1.38          0.920        0.000
  YS02001774           JUNCTION        1.42          1.016        0.034
  YS02001779           JUNCTION        1.30          0.680        0.000
  YS02001783           JUNCTION        1.48          0.686        0.914
  YS02001784           JUNCTION        1.45          0.516        0.974
  YS02001786           JUNCTION        1.26          0.190        1.240
  YS02001882           JUNCTION        1.38          0.830        0.000
  YS02001884           JUNCTION        1.40          0.870        0.000
  YS02001887           JUNCTION        1.46          0.950        0.000
  YS02001890           JUNCTION        1.48          0.760        0.000
  YS02001895           JUNCTION        1.37          0.579        0.171
  YS02001898           JUNCTION        1.36          0.540        0.200
  YS02001901           JUNCTION        1.44          0.676        0.194
  YS02001904           JUNCTION        1.43          0.639        0.211
  YS02001907           JUNCTION        1.72          0.950        0.000
  YS02001910           JUNCTION        1.52          1.014        0.086
  YS02001915           JUNCTION        1.38          1.000        0.000
  YS02001918           JUNCTION        1.23          0.810        0.000
  YS02001920           JUNCTION        1.26          1.032        0.108
  YS02001923           JUNCTION        0.61          0.711        0.109
  YS02001926           JUNCTION        0.66          0.881        0.019
  YS02001929           JUNCTION        0.45          0.780        0.000
  YS02006553           JUNCTION        1.73          1.137        0.053
  YS02006556           JUNCTION        1.63          1.293        0.057
  YS02006558           JUNCTION        1.61          1.400        0.000
  YS02006561           JUNCTION        1.19          0.408        0.742
  YS02163301           JUNCTION        1.78          0.955        0.075
  YS02163601           JUNCTION        1.83          1.079        0.001
  YS02164001           JUNCTION        1.74          0.976        0.124
  YSB1154              JUNCTION        1.02          1.307        0.093
  YSB1171              JUNCTION        1.03          1.100        0.000
  YSB1174              JUNCTION        0.92          1.183        0.067
  YSB6556              JUNCTION        0.85          1.073        0.027
  
  
  *********************
  Node Flooding Summary
  *********************
  
  Flooding refers to all water that overflows a node, whether it ponds or not.
  --------------------------------------------------------------------------
                                                             Total   Maximum
                                 Maximum   Time of Max       Flood    Ponded
                        Hours       Rate    Occurrence      Volume     Depth
  Node                 Flooded       LPS   days hr:min    10^6 ltr    Meters
  --------------------------------------------------------------------------
  HS02004770              0.46   1486.66      0  01:51       1.137     0.000
  HS02004777              0.01     64.30      0  01:43       0.001     0.000
  HS02004785              0.01    106.47      0  01:43       0.000     0.000
  HS02004788              0.01    268.02      0  01:43       0.001     0.000
  HS02004792              0.48   2019.98      0  01:51       1.768     0.000
  HS02004799              0.25    295.07      0  01:50       0.169     0.000
  HS02004807              0.18    529.63      0  01:50       0.230     0.000
  HS02004824              0.10    112.27      0  01:52       0.028     0.000
  HS02004842              0.10     92.50      0  01:45       0.021     0.000
  HS02004856              0.01    494.36      0  01:45       0.004     0.000
  HS02004862              0.09    128.06      0  01:50       0.027     0.000
  HS02004901              0.55    714.63      0  01:50       0.905     0.000
  WS02006109              0.53    333.53      0  01:50       0.356     0.000
  WS02006228              0.01      1.09      0  01:45       0.000     0.000
  WS02006230              0.83    574.43      0  01:47       1.194     0.000
  WS02006231              0.01     81.66      0  03:34       0.000     0.000
  WS02006232              0.19      1.11      0  01:49       0.000     0.000
  WS02006234              0.91    128.33      0  02:21       0.242     0.000
  WS02006235              0.01     16.39      0  03:34       0.000     0.000
  WS02006239              0.01     36.74      0  03:36       0.000     0.000
  WS02006240              0.01     95.84      0  03:35       0.000     0.000
  WS02006242              1.08    137.40      0  02:23       0.448     0.000
  WS02006243              0.01     90.10      0  01:30       0.000     0.000
  WS02006245              0.01     26.83      0  01:30       0.000     0.000
  WS02006247              0.01     93.59      0  01:30       0.000     0.000
  WS02006248              1.54    346.64      0  01:40       1.460     0.000
  WS02006249              2.02   1317.76      0  01:50       5.702     0.000
  WS02006252              0.77    928.79      0  01:50       1.229     0.000
  WS02006256              1.23    444.74      0  02:16       1.330     0.000
  YS02001580              0.01     46.75      0  01:30       0.000     0.000
  YS02001583              0.01     39.70      0  01:30       0.000     0.000
  YS02001586              1.40   3117.83      0  02:14       4.170     0.000
  YS02001590              0.01      1.05      0  01:30       0.000     0.000
  YS02001596              0.01      0.27      0  03:02       0.000     0.000
  YS02001600              0.01     13.23      0  03:02       0.000     0.000
  YS02001601              1.60   5419.52      0  02:13       7.473     0.000
  YS02001602              1.41     62.09      0  02:51       0.305     0.000
  YS02001605              0.01      0.30      0  01:38       0.000     0.000
  YS02001607              0.01      0.86      0  03:02       0.000     0.000
  YS02001610              1.36    955.96      0  02:10       3.109     0.000
  YS02001613              0.01      1.45      0  03:02       0.000     0.000
  YS02001616              0.17      1.97      0  02:35       0.000     0.000
  YS02001619              0.56   4326.83      0  02:14       3.379     0.000
  YS02001622              0.01      0.84      0  03:02       0.000     0.000
  YS02001625              1.32   1505.27      0  02:20       4.754     0.000
  YS02001629              0.58    686.84      0  02:19       0.877     0.000
  YS02001633              0.25   2084.30      0  02:13       0.869     0.000
  YS02001644              0.79   5416.96      0  02:13       6.233     0.000
  YS02001649              0.23   2086.87      0  02:13       0.985     0.000
  YS02001655              0.13    303.21      0  02:14       0.116     0.000
  YS02001658              0.09     52.18      0  02:13       0.017     0.000
  YS02001664              0.09    778.97      0  02:13       0.138     0.000
  YS02001759              0.10    813.36      0  02:13       0.145     0.000
  YS02001762              0.05      1.21      0  02:12       0.000     0.000
  YS02001770              0.41   4224.46      0  02:13       2.701     0.000
  YS02001779              0.72    851.49      0  02:23       1.630     0.000
  YS02001882              0.01      0.47      0  02:09       0.000     0.000
  YS02001884              0.01      0.76      0  02:11       0.000     0.000
  YS02001887              0.13   1113.42      0  02:13       0.254     0.000
  YS02001890              0.68   1536.84      0  02:15       1.610     0.000
  YS02001907              1.15   4670.09      0  02:12       7.978     0.000
  YS02001915              0.39   3184.94      0  02:13       2.032     0.000
  YS02001918              0.19    459.71      0  02:14       0.210     0.000
  YS02001929              0.09    289.05      0  02:13       0.055     0.000
  YS02006558              0.09    959.61      0  02:13       0.166     0.000
  YSB1171                 0.36   1196.25      0  01:50       0.898     0.000
  
  
  **********************
  Storage Volume Summary
  **********************
  
  --------------------------------------------------------------------------------------------------
                         Average     Avg  Evap Exfil       Maximum     Max    Time of Max    Maximum
                          Volume    Pcnt  Pcnt  Pcnt        Volume    Pcnt     Occurrence    Outflow
  Storage Unit           1000 m3    Full  Loss  Loss       1000 m3    Full    days hr:min        LPS
  --------------------------------------------------------------------------------------------------
  CC-storage               2.302      36     0     0         4.830      75       0  02:37    2649.00
  JK-storage               0.076      26     0     0         0.213      73       0  02:24    3000.00
  XR-storage               0.931      65     0     0         1.111      77       0  08:00     380.00
  
  
  ***********************
  Outfall Loading Summary
  ***********************
  
  -----------------------------------------------------------
                         Flow       Avg       Max       Total
                         Freq      Flow      Flow      Volume
  Outfall Node           Pcnt       LPS       LPS    10^6 ltr
  -----------------------------------------------------------
  CC-1                  49.80    927.73   1024.50       6.534
  CC-2                  56.55   1023.24   1024.50       8.926
  JK-1                   7.98   1215.05   1500.00       2.036
  JK-2                  12.94   1493.71   1500.00       3.696
  WSC                   99.95    636.64   1537.21      14.776
  -----------------------------------------------------------
  System                45.44   5296.36   1537.21      35.968
  
  
  ********************
  Link Flow Summary
  ********************
  
  -----------------------------------------------------------------------------
                                 Maximum  Time of Max   Maximum    Max/    Max/
                                  |Flow|   Occurrence   |Veloc|    Full    Full
  Link                 Type          LPS  days hr:min     m/sec    Flow   Depth
  -----------------------------------------------------------------------------
  1                    CONDUIT   1537.21     0  01:55      3.72    0.54    0.52
  HS02004478WS02006287 CONDUIT   2306.73     0  01:47      2.57    0.65    1.00
  HS02004479HS02004480 CONDUIT    485.79     0  01:45      0.69    0.47    1.00
  HS02004480HS02004478 CONDUIT   2148.12     0  01:44      3.07    9.05    1.00
  HS02004770HS02004777 CONDUIT    771.66     0  01:42      1.10    1.41    1.00
  HS02004777HS02004785 CONDUIT    787.90     0  01:42      1.17    0.97    1.00
  HS02004785HS02004788 CONDUIT    638.19     0  01:43      1.35    4.81    1.00
  HS02004788HS02004792 CONDUIT    868.90     0  01:50      1.43    0.57    1.00
  HS02004792HS02004799 CONDUIT   1574.52     0  01:43      2.25    0.96    1.00
  HS02004799HS02004480 CONDUIT   1749.19     0  01:44      2.50    2.21    1.00
  HS02004802HS02004478 CONDUIT   1233.57     0  01:56      1.76    1.09    1.00
  HS02004807HS02004802 CONDUIT   1233.10     0  01:50      1.76    2.35    1.00
  HS02004817HS02004807 CONDUIT   1197.00     0  01:53      1.71    0.71    1.00
  HS02004817HS02004824 CONDUIT   1196.39     0  01:54      1.71    0.54    1.00
  HS02004824HS02004830 CONDUIT    689.25     0  01:43      1.01    0.90    1.00
  HS02004830HS02004837 CONDUIT    691.89     0  01:43      1.07    0.69    1.00
  HS02004837HS02004842 CONDUIT    895.26     0  01:44      1.28    0.53    1.00
  HS02004842HS02004848 CONDUIT    894.79     0  01:44      1.42    0.52    1.00
  HS02004848HS02004852 CONDUIT   1107.65     0  01:45      1.65    1.25    1.00
  HS02004852HS02004856 CONDUIT   1111.51     0  01:45      1.59    1.27    1.00
  HS02004856HS02004862 CONDUIT   1105.80     0  01:45      1.70    1.10    1.00
  HS02004862HS02004870 CONDUIT   1053.92     0  01:45      1.74    1.14    1.00
  HS02004870HS02004876 CONDUIT   1246.14     0  01:54      1.78    0.83    1.00
  HS02004876HS02004881 CONDUIT   1512.09     0  01:53      2.19   16.08    1.00
  HS02004881HS02006253 CONDUIT   1664.69     0  01:50      2.38    0.33    1.00
  HS02004901HS02004770 CONDUIT    265.79     0  02:10      0.38    1.00    1.00
  WS02001211WS02001212 CONDUIT    209.78     0  02:46      0.54    0.16    0.70
  WS02001212WS02001213 CONDUIT    212.92     0  02:46      1.04    0.33    0.57
  WS02001213WS02003059 CONDUIT    217.84     0  03:21      0.47    0.36    0.90
  WS02003059WS02003060 CONDUIT    222.90     0  03:18      0.67    0.15    0.82
  WS02003060WS02003069 CONDUIT   1535.63     0  01:54      2.09    0.60    0.62
  WS02003066WSF200     CONDUIT   1333.82     0  01:50      3.27    0.23    0.39
  WS02003067WS02003066 CONDUIT   1333.84     0  01:50      2.03    0.43    0.56
  WS02003069WS02003072 CONDUIT   1535.56     0  01:54      1.91    0.74    0.67
  WS02003072WS02003073 CONDUIT   1535.53     0  01:55      2.07    3.32    0.62
  WS02004138WS02004139 CONDUIT    190.94     0  00:29      2.16    0.04    0.42
  WS02004139WS02001211 CONDUIT    197.07     0  02:46      0.54    0.25    0.61
  WS02004401WS02004402 CONDUIT   1333.86     0  01:50      1.70    1.60    1.00
  WS02004402WS02004403 CONDUIT   1333.72     0  01:49      1.70    1.92    1.00
  WS02004403WS02004404 CONDUIT   1334.72     0  01:50      1.70    0.96    1.00
  WS02004404WS02004405 CONDUIT   1334.16     0  01:50      1.70   13.07    1.00
  WS02004405WS02004406 CONDUIT   1334.28     0  01:50      1.70    2.63    1.00
  WS02004406WS02004407 CONDUIT   1334.10     0  01:50      1.74    0.60    0.99
  WS02004407WS02004409 CONDUIT   1334.03     0  01:50      1.95    0.47    0.99
  WS02004409WS02004410 CONDUIT   1334.03     0  01:50      1.70    1.73    1.00
  WS02004410WS02004411 CONDUIT   1334.09     0  01:50      1.70    1.82    1.00
  WS02004411WS02004412 CONDUIT   1334.39     0  01:50      1.70    1.90    1.00
  WS02004412WS02004413 CONDUIT   1334.58     0  01:50      1.70    0.89    1.00
  WS02004413WS02003067 CONDUIT   1334.01     0  01:50      2.05    0.57    0.77
  WS02006109WS02006110 CONDUIT   1124.57     0  02:15      2.24    2.16    1.00
  WS02006110WS02006113 CONDUIT   1124.63     0  02:15      2.24    1.02    1.00
  WS02006111WS02006112 CONDUIT   1124.95     0  02:15      2.24    0.53    1.00
  WS02006112WS02006115 CONDUIT   1333.37     0  01:49      1.70    0.79    1.00
  WS02006113WS02006111 CONDUIT   1124.73     0  02:15      2.73    1.35    1.00
  WS02006115WS02006116 CONDUIT   1333.64     0  01:50      1.70    1.71    1.00
  WS02006116WS02004401 CONDUIT   1333.75     0  01:50      1.70    1.84    1.00
  WS02006228WS02006109 CONDUIT   1289.40     0  01:48      2.57    5.63    1.00
  WS02006229WS02006228 CONDUIT   1289.76     0  01:48      2.57    4.27    1.00
  WS02006230WS02006229 CONDUIT   1017.16     0  01:47      2.64   22.64    1.00
  WS02006231WS02006230 CONDUIT    524.47     0  03:30      1.36    7.96    1.00
  WS02006232WS02006231 CONDUIT    525.61     0  03:30      1.37    1.10    1.00
  WS02006234WS02006232 CONDUIT    525.02     0  03:30      1.42    1.06    1.00
  WS02006235WS02006234 CONDUIT    520.99     0  03:30      1.35    5.50    1.00
  WS02006238WS02006235 CONDUIT    428.66     0  03:31      1.45    0.96    1.00
  WS02006239WS02006238 CONDUIT    427.92     0  03:29      1.11    1.37    1.00
  WS02006240WS02006239 CONDUIT    427.01     0  03:28      1.17    1.34    1.00
  WS02006242WS02006240 CONDUIT    427.11     0  03:28      1.11    1.70    1.00
  WS02006243WS02006242 CONDUIT    427.38     0  03:28      1.26    0.91    1.00
  WS02006245WS02006243 CONDUIT    427.91     0  03:28      1.28    1.27    1.00
  WS02006247WS02006245 CONDUIT    428.41     0  03:28      1.29    3.40    1.00
  WS02006248WS02006247 CONDUIT    429.57     0  03:31      1.33    0.94    1.00
  WS02006249WS02006248 CONDUIT    430.37     0  03:31      1.29    2.36    1.00
  WS02006251WS02006249 CONDUIT   1379.01     0  01:50      3.58    3.98    1.00
  WS02006252WS02006251 CONDUIT    610.18     0  01:31     25.27    2.24    1.00
  WS02006253WS02006251 CONDUIT   1707.56     0  01:50      4.44    5.12    1.00
  WS02006256WS02006235 CONDUIT    288.93     0  00:00      4.23    3.06    1.00
  WS02006280WS02006229 CONDUIT   2308.82     0  01:47      4.12    0.49    1.00
  WS02006284WS02006280 CONDUIT   2306.86     0  01:48      2.99    0.97    1.00
  WS02006287WS02006284 CONDUIT   2306.53     0  01:47      2.94    1.07    1.00
  WSF200WS02003060     CONDUIT   1333.49     0  01:51      2.36    0.30    0.51
  YS02001580YS02001583 CONDUIT     62.59     0  01:29      0.49    0.24    1.00
  YS02001583YS02001586 CONDUIT     95.35     0  01:29      0.39    0.14    1.00
  YS02001586YS02001590 CONDUIT    318.99     0  03:02      1.28    0.56    1.00
  YS02001590YS02001593 CONDUIT    318.58     0  02:23      1.15    2.00    1.00
  YS02001593YS02001596 CONDUIT    318.19     0  01:43      1.84    0.50    1.00
  YS02001596YS02001600 CONDUIT    318.18     0  02:53      1.34    0.62    1.00
  YS02001600YS02001601 CONDUIT    318.48     0  02:53      1.13    0.55    1.00
  YS02001601YS02001602 CONDUIT    502.33     0  01:29      1.78    1.81    1.00
  YS02001602YS02001605 CONDUIT    502.32     0  01:29      1.78   10.63    1.00
  YS02001605YS02001607 CONDUIT    502.24     0  01:29      1.78    2.75    1.00
  YS02001607YS02001610 CONDUIT    504.38     0  01:29      0.64    0.48    1.00
  YS02001610YS02001613 CONDUIT    620.35     0  02:16      0.79    0.72    1.00
  YS02001613YS02001616 CONDUIT    620.24     0  02:10      0.79    0.53    1.00
  YS02001616YS02001619 CONDUIT    620.14     0  02:16      0.79    1.08    1.00
  YS02001619YS02001622 CONDUIT   1054.01     0  02:22      1.37    1.55    1.00
  YS02001622YS02001625 CONDUIT   1053.72     0  02:20      1.34    0.56    1.00
  YS02001625YS02001629 CONDUIT    932.92     0  01:38      1.19    0.44    1.00
  YS02001629YS02163301 CONDUIT   1139.01     0  02:19      1.45    1.40    1.00
  YS02001633YS02163601 CONDUIT   1340.84     0  01:39      1.71    1.41    1.00
  YS02001641YS02001644 CONDUIT   1339.93     0  01:39      1.71    4.33    1.00
  YS02001644YS02001647 CONDUIT   1706.98     0  01:39      2.19    1.00    1.00
  YS02001647YS02001649 CONDUIT   1713.60     0  01:39      2.31    0.90    1.00
  YS02001649YS02001757 CONDUIT   1977.75     0  01:40      2.52    1.20    1.00
  YS02001652YS02001649 CONDUIT   2429.25     0  02:17      3.09    1.20    1.00
  YS02001655YS02001652 CONDUIT   2429.25     0  02:13      3.09    1.18    1.00
  YS02001658YS02001655 CONDUIT   2731.29     0  02:16      3.48    1.16    1.00
  YS02001661YS02001658 CONDUIT   2783.77     0  02:13      3.54    1.09    1.00
  YS02001664YS02001661 CONDUIT   2783.76     0  02:13      3.54    0.87    1.00
  YS02001745YS02001748 CONDUIT   2173.64     0  02:13      2.77    0.84    1.00
  YS02001748YS02001751 CONDUIT   2172.64     0  02:13      2.77    1.10    1.00
  YS02001751YS02001754 CONDUIT   2174.47     0  02:13      2.77    1.05    1.00
  YS02001754YS02001757 CONDUIT   2176.20     0  02:13      2.77    0.88    1.00
  YS02001757CaochengTiaoxuchi CONDUIT   3272.24     0  01:52      4.17    1.42    1.00
  YS02001759YS02001757 CONDUIT   1637.02     0  02:15      2.08    1.16    1.00
  YS02001762YS02001759 CONDUIT    769.13     0  01:52      0.98    0.89    1.00
  YS02001765YS02001762 CONDUIT    768.65     0  01:52      0.98    0.72    1.00
  YS02001767YS02001765 CONDUIT    768.55     0  01:52      0.98    0.97    1.00
  YS02001770YS02001767 CONDUIT    768.03     0  01:53      0.98    3.04    1.00
  YS02001774YS02001770 CONDUIT    852.14     0  02:19      1.08    0.54    1.00
  YS02001779YS02001774 CONDUIT    851.78     0  02:23      1.08    0.43    1.00
  YS02001783YS02001784 CONDUIT   1321.89     0  02:12      2.63    1.82    1.00
  YS02001784YS02001785 CONDUIT   1322.67     0  02:12      2.63    3.08    1.00
  YS02001786YS02001788 CONDUIT   1322.82     0  02:14      2.74    2.55    0.92
  YS02001788YS02001790 CONDUIT   1328.60     0  02:11      2.90    0.98    0.87
  YS02001790YS02001791 CONDUIT   1369.99     0  02:11      3.53    1.49    0.73
  YS02001791YS02001793 CONDUIT   1355.92     0  02:11      6.88    0.58    0.46
  YS02001793JiankangQianchi CONDUIT   1354.59     0  02:11      2.70    0.11    0.65
  YS02001882YS02001884 CONDUIT     32.89     0  01:19      0.26    0.04    1.00
  YS02001884YS02001887 CONDUIT     46.73     0  01:17      0.20    0.06    1.00
  YS02001887YS02001890 CONDUIT   2052.03     0  02:16      2.61    3.51    1.00
  YS02001890YS02001895 CONDUIT    518.69     0  02:28      0.66    0.24    1.00
  YS02001895YS02001898 CONDUIT    518.55     0  02:26      0.66    0.90    1.00
  YS02001898YS02001901 CONDUIT    518.41     0  02:10      0.66    0.33    1.00
  YS02001901YS02001904 CONDUIT    518.42     0  02:26      0.66    0.80    1.00
  YS02001904YS02001907 CONDUIT    518.97     0  02:26      0.66    0.18    1.00
  YS02001907YS02006553 CONDUIT   2160.84     0  02:14      2.40    2.54    1.00
  YS02001910YS02001907 CONDUIT   1993.05     0  02:23      2.54    1.12    1.00
  YS02001915YS02001910 CONDUIT   1993.22     0  02:21      2.54    0.99    1.00
  YS02001918YS02001915 CONDUIT   1221.69     0  02:19      1.56    0.67    1.00
  YS02001920YS02001918 CONDUIT   1681.48     0  02:14      2.14    1.63    1.00
  YS02001923YS02001920 CONDUIT   1678.97     0  02:15      2.14    0.75    1.00
  YS02001926YS02001923 CONDUIT   1678.95     0  02:14      2.14    2.40    1.00
  YS02001929YS02001926 CONDUIT   1678.53     0  02:16      2.14    0.80    1.00
  YS02006553YS02006556 CONDUIT   2160.53     0  02:15      2.75    1.85    1.00
  YS02006556YS02006558 CONDUIT   2160.81     0  02:15      2.75    1.71    1.00
  YS02006558YS02006561 CONDUIT   1321.50     0  02:15      4.67    2.92    1.00
  YS02006561YS02001783 CONDUIT   1321.83     0  02:14      2.63    0.68    1.00
  YS02163301YS02001633 CONDUIT   1138.93     0  02:19      1.45    1.07    1.00
  YS02163601YS02164001 CONDUIT   1340.94     0  01:39      1.71    1.19    1.00
  YS02164001YS02001641 CONDUIT   1340.22     0  01:39      1.71    1.83    1.00
  YSB1154YSB6556       CONDUIT    516.23     0  01:51      1.34    0.93    1.00
  YSB1171HS02004479    CONDUIT    488.86     0  01:45      0.97    0.33    1.00
  YSB1174YSB1171       CONDUIT    454.20     0  01:50      1.18    0.70    1.00
  YSB6556YSB1171       CONDUIT    516.52     0  01:51      1.34    0.53    1.00
  CC-R1                PUMP      1024.50     0  00:01              1.50
  CC-R2                PUMP      1024.50     0  00:01              1.50
  CC-S1                PUMP       300.00     0  01:08              1.50
  CC-S2                PUMP       300.00     0  00:01              1.50
  JK-R1                PUMP      1500.00     0  01:18              1.50
  JK-R2                PUMP      1500.00     0  01:21              1.50
  JK-S                 PUMP       450.00     0  00:11              1.50
  XR-1                 PUMP        95.00     0  00:00              1.00
  XR-2                 PUMP        95.00     0  00:00              1.00
  XR-3                 PUMP        95.00     0  00:00              1.00
  XR-4                 PUMP        95.00     0  00:00              1.00
  
  
  ***************************
  Flow Classification Summary
  ***************************
  
  -------------------------------------------------------------------------------------
                      Adjusted    ---------- Fraction of Time in Flow Class ---------- 
                       /Actual         Up    Down  Sub   Sup   Up    Down  Norm  Inlet 
  Conduit               Length    Dry  Dry   Dry   Crit  Crit  Crit  Crit  Ltd   Ctrl  
  -------------------------------------------------------------------------------------
  1                       1.00   0.00  0.00  0.00  0.00  1.00  0.00  0.00  0.36  0.00
  HS02004478WS02006287    1.00   0.12  0.00  0.00  0.58  0.30  0.00  0.00  0.59  0.00
  HS02004479HS02004480    1.00   0.07  0.00  0.00  0.93  0.00  0.00  0.00  0.11  0.00
  HS02004480HS02004478    1.00   0.11  0.00  0.00  0.47  0.00  0.00  0.43  0.00  0.00
  HS02004770HS02004777    1.00   0.00  0.11  0.00  0.89  0.00  0.00  0.00  0.02  0.00
  HS02004777HS02004785    1.00   0.00  0.00  0.00  1.00  0.00  0.00  0.00  0.11  0.00
  HS02004785HS02004788    1.00   0.00  0.00  0.00  1.00  0.00  0.00  0.00  0.00  0.00
  HS02004788HS02004792    1.00   0.00  0.00  0.00  0.96  0.04  0.00  0.00  0.88  0.00
  HS02004792HS02004799    1.00   0.00  0.00  0.00  0.95  0.05  0.00  0.00  0.84  0.00
  HS02004799HS02004480    1.00   0.01  0.06  0.00  0.88  0.00  0.05  0.00  0.00  0.00
  HS02004802HS02004478    1.00   0.11  0.00  0.00  0.89  0.00  0.00  0.00  0.02  0.00
  HS02004807HS02004802    1.00   0.11  0.00  0.00  0.89  0.00  0.00  0.01  0.00  0.00
  HS02004817HS02004807    1.00   0.00  0.11  0.00  0.89  0.00  0.00  0.00  0.01  0.00
  HS02004817HS02004824    1.00   0.00  0.00  0.00  1.00  0.00  0.00  0.00  0.80  0.00
  HS02004824HS02004830    1.00   0.00  0.00  0.00  1.00  0.00  0.00  0.00  0.01  0.00
  HS02004830HS02004837    1.00   0.00  0.00  0.00  0.99  0.01  0.00  0.00  0.86  0.00
  HS02004837HS02004842    1.00   0.00  0.00  0.00  0.98  0.02  0.00  0.00  0.11  0.00
  HS02004842HS02004848    1.00   0.00  0.11  0.00  0.89  0.00  0.00  0.00  0.55  0.00
  HS02004848HS02004852    1.00   0.11  0.00  0.00  0.89  0.00  0.00  0.00  0.70  0.00
  HS02004852HS02004856    1.00   0.11  0.00  0.00  0.89  0.00  0.00  0.00  0.65  0.00
  HS02004856HS02004862    1.00   0.00  0.12  0.00  0.88  0.00  0.00  0.00  0.73  0.00
  HS02004862HS02004870    1.00   0.00  0.00  0.00  1.00  0.00  0.00  0.00  0.03  0.00
  HS02004870HS02004876    1.00   0.02  0.00  0.00  0.98  0.01  0.00  0.00  0.84  0.00
  HS02004876HS02004881    1.00   0.06  0.00  0.00  0.73  0.21  0.00  0.00  0.00  0.00
  HS02004881HS02006253    1.00   0.03  0.05  0.00  0.50  0.02  0.00  0.40  0.18  0.00
  HS02004901HS02004770    1.00   0.11  0.00  0.00  0.89  0.00  0.00  0.00  0.00  0.00
  WS02001211WS02001212    1.00   0.00  0.06  0.00  0.94  0.00  0.00  0.00  0.00  0.00
  WS02001212WS02001213    1.00   0.06  0.00  0.00  0.49  0.00  0.45  0.00  0.00  0.00
  WS02001213WS02003059    1.00   0.00  0.03  0.00  0.97  0.00  0.00  0.00  0.00  0.00
  WS02003059WS02003060    1.00   0.00  0.00  0.00  0.99  0.01  0.00  0.00  0.03  0.00
  WS02003060WS02003069    1.00   0.00  0.00  0.00  0.96  0.04  0.00  0.00  0.47  0.00
  WS02003066WSF200        1.00   0.11  0.00  0.00  0.00  0.89  0.00  0.00  0.59  0.00
  WS02003067WS02003066    1.00   0.10  0.01  0.00  0.90  0.00  0.00  0.00  0.00  0.00
  WS02003069WS02003072    1.00   0.00  0.00  0.00  0.98  0.02  0.00  0.00  0.66  0.00
  WS02003072WS02003073    1.00   0.00  0.00  0.00  0.00  0.00  0.00  1.00  0.00  0.00
  WS02004138WS02004139    1.00   0.00  0.00  0.00  0.94  0.01  0.00  0.05  0.98  0.00
  WS02004139WS02001211    1.00   0.00  0.01  0.00  0.98  0.00  0.01  0.00  0.00  0.00
  WS02004401WS02004402    1.00   0.06  0.00  0.00  0.94  0.00  0.00  0.00  0.00  0.00
  WS02004402WS02004403    1.00   0.06  0.00  0.00  0.93  0.00  0.00  0.00  0.00  0.00
  WS02004403WS02004404    1.00   0.00  0.07  0.00  0.93  0.00  0.00  0.00  0.00  0.00
  WS02004404WS02004405    1.00   0.00  0.00  0.00  1.00  0.00  0.00  0.00  0.00  0.00
  WS02004405WS02004406    1.00   0.00  0.00  0.00  1.00  0.00  0.00  0.00  0.00  0.00
  WS02004406WS02004407    1.00   0.00  0.08  0.00  0.92  0.00  0.00  0.00  0.00  0.00
  WS02004407WS02004409    1.00   0.08  0.00  0.00  0.92  0.00  0.00  0.00  0.79  0.00
  WS02004409WS02004410    1.00   0.08  0.00  0.00  0.92  0.00  0.00  0.00  0.03  0.00
  WS02004410WS02004411    1.00   0.08  0.00  0.00  0.92  0.00  0.00  0.00  0.01  0.00
  WS02004411WS02004412    1.00   0.08  0.00  0.00  0.92  0.00  0.00  0.00  0.00  0.00
  WS02004412WS02004413    1.00   0.08  0.00  0.00  0.92  0.00  0.00  0.00  0.01  0.00
  WS02004413WS02003067    1.00   0.08  0.02  0.00  0.00  0.00  0.90  0.00  0.00  0.00
  WS02006109WS02006110    1.00   0.00  0.04  0.00  0.94  0.00  0.02  0.00  0.00  0.00
  WS02006110WS02006113    1.00   0.04  0.02  0.00  0.94  0.00  0.00  0.00  0.00  0.00
  WS02006111WS02006112    1.00   0.06  0.00  0.00  0.94  0.00  0.00  0.00  0.73  0.00
  WS02006112WS02006115    1.00   0.06  0.00  0.00  0.93  0.00  0.00  0.00  0.00  0.00
  WS02006113WS02006111    1.00   0.06  0.00  0.00  0.29  0.66  0.00  0.00  0.06  0.00
  WS02006115WS02006116    1.00   0.06  0.00  0.00  0.93  0.00  0.00  0.01  0.00  0.00
  WS02006116WS02004401    1.00   0.06  0.00  0.00  0.94  0.00  0.00  0.00  0.00  0.00
  WS02006228WS02006109    1.00   0.00  0.00  0.00  1.00  0.00  0.00  0.00  0.00  0.00
  WS02006229WS02006228    1.00   0.00  0.00  0.00  0.96  0.00  0.00  0.03  0.00  0.00
  WS02006230WS02006229    1.00   0.00  0.00  0.00  0.94  0.00  0.00  0.06  0.03  0.00
  WS02006231WS02006230    1.00   0.00  0.00  0.00  0.52  0.00  0.48  0.00  0.00  0.00
  WS02006232WS02006231    1.00   0.00  0.00  0.00  0.98  0.00  0.02  0.00  0.00  0.00
  WS02006234WS02006232    1.00   0.00  0.00  0.00  0.99  0.01  0.00  0.00  0.05  0.00
  WS02006235WS02006234    1.00   0.00  0.00  0.00  0.88  0.00  0.12  0.00  0.00  0.00
  WS02006238WS02006235    1.00   0.00  0.00  0.00  1.00  0.00  0.00  0.00  0.00  0.00
  WS02006239WS02006238    1.00   0.00  0.00  0.00  1.00  0.00  0.00  0.00  0.14  0.00
  WS02006240WS02006239    1.00   0.00  0.00  0.00  0.78  0.00  0.00  0.22  0.01  0.00
  WS02006242WS02006240    1.00   0.01  0.00  0.00  0.98  0.00  0.02  0.00  0.00  0.00
  WS02006243WS02006242    1.00   0.00  0.00  0.00  0.97  0.00  0.00  0.02  0.64  0.00
  WS02006245WS02006243    1.00   0.00  0.00  0.00  0.90  0.00  0.00  0.10  0.01  0.00
  WS02006247WS02006245    1.00   0.00  0.00  0.00  0.96  0.00  0.00  0.04  0.00  0.00
  WS02006248WS02006247    1.00   0.00  0.00  0.00  0.99  0.00  0.00  0.01  0.52  0.00
  WS02006249WS02006248    1.00   0.00  0.00  0.00  0.68  0.00  0.32  0.00  0.00  0.00
  WS02006251WS02006249    1.00   0.00  0.00  0.00  1.00  0.00  0.00  0.00  0.56  0.00
  WS02006252WS02006251    1.00   0.22  0.15  0.00  0.35  0.00  0.27  0.00  0.00  0.00
  WS02006253WS02006251    1.00   0.00  0.00  0.00  0.99  0.00  0.01  0.00  0.01  0.00
  WS02006256WS02006235    1.00   0.00  0.00  0.00  0.99  0.01  0.00  0.00  0.00  0.00
  WS02006280WS02006229    1.00   0.11  0.00  0.00  0.24  0.05  0.00  0.60  0.01  0.00
  WS02006284WS02006280    1.00   0.11  0.00  0.00  0.16  0.02  0.00  0.71  0.00  0.00
  WS02006287WS02006284    1.00   0.10  0.02  0.00  0.41  0.47  0.00  0.00  0.65  0.00
  WSF200WS02003060        1.00   0.00  0.11  0.00  0.44  0.46  0.00  0.00  0.57  0.00
  YS02001580YS02001583    1.00   0.18  0.31  0.00  0.51  0.00  0.00  0.00  0.60  0.00
  YS02001583YS02001586    1.00   0.24  0.19  0.00  0.56  0.00  0.01  0.00  0.60  0.00
  YS02001586YS02001590    1.00   0.11  0.00  0.00  0.70  0.02  0.00  0.17  0.32  0.00
  YS02001590YS02001593    1.00   0.11  0.00  0.00  0.35  0.00  0.54  0.00  0.00  0.00
  YS02001593YS02001596    1.00   0.11  0.00  0.00  0.38  0.01  0.00  0.51  0.01  0.00
  YS02001596YS02001600    1.00   0.11  0.00  0.00  0.43  0.02  0.00  0.44  0.02  0.00
  YS02001600YS02001601    1.00   0.11  0.00  0.00  0.89  0.00  0.00  0.00  0.54  0.00
  YS02001601YS02001602    1.00   0.11  0.00  0.00  0.89  0.00  0.00  0.00  0.00  0.00
  YS02001602YS02001605    1.00   0.11  0.00  0.00  0.89  0.00  0.00  0.00  0.00  0.00
  YS02001605YS02001607    1.00   0.11  0.00  0.00  0.89  0.00  0.00  0.00  0.00  0.00
  YS02001607YS02001610    1.00   0.11  0.00  0.00  0.89  0.00  0.00  0.00  0.00  0.00
  YS02001610YS02001613    1.00   0.11  0.00  0.00  0.89  0.00  0.00  0.00  0.00  0.00
  YS02001613YS02001616    1.00   0.11  0.00  0.00  0.89  0.00  0.00  0.00  0.00  0.00
  YS02001616YS02001619    1.00   0.11  0.00  0.00  0.89  0.00  0.00  0.00  0.00  0.00
  YS02001619YS02001622    1.00   0.11  0.00  0.00  0.89  0.00  0.00  0.00  0.25  0.00
  YS02001622YS02001625    1.00   0.11  0.00  0.00  0.89  0.00  0.00  0.00  0.01  0.00
  YS02001625YS02001629    1.00   0.11  0.01  0.00  0.40  0.00  0.49  0.00  0.00  0.00
  YS02001629YS02163301    1.00   0.11  0.00  0.00  0.89  0.00  0.00  0.00  0.00  0.00
  YS02001633YS02163601    1.00   0.00  0.02  0.00  0.98  0.00  0.00  0.00  0.13  0.00
  YS02001641YS02001644    1.00   0.00  0.02  0.00  0.98  0.00  0.00  0.00  0.00  0.00
  YS02001644YS02001647    1.00   0.00  0.11  0.00  0.89  0.00  0.00  0.00  0.00  0.00
  YS02001647YS02001649    1.00   0.00  0.11  0.00  0.57  0.32  0.00  0.00  0.52  0.00
  YS02001649YS02001757    1.00   0.00  0.00  0.00  0.67  0.33  0.00  0.00  0.42  0.00
  YS02001652YS02001649    1.00   0.00  0.00  0.00  0.99  0.01  0.00  0.00  0.67  0.00
  YS02001655YS02001652    1.00   0.00  0.00  0.00  0.45  0.02  0.00  0.53  0.05  0.00
  YS02001658YS02001655    1.00   0.00  0.11  0.00  0.60  0.29  0.00  0.00  0.61  0.00
  YS02001661YS02001658    1.00   0.11  0.00  0.00  0.45  0.45  0.00  0.00  0.62  0.00
  YS02001664YS02001661    1.00   0.11  0.00  0.00  0.73  0.17  0.00  0.00  0.78  0.00
  YS02001745YS02001748    1.00   0.00  0.00  0.00  0.24  0.01  0.00  0.75  0.03  0.00
  YS02001748YS02001751    1.00   0.00  0.00  0.00  0.75  0.25  0.00  0.00  0.72  0.00
  YS02001751YS02001754    1.00   0.00  0.00  0.00  0.36  0.02  0.00  0.62  0.02  0.00
  YS02001754YS02001757    1.00   0.00  0.00  0.00  1.00  0.00  0.00  0.00  0.75  0.00
  YS02001757CaochengTiaoxuchi    1.00   0.00  0.00  0.00  0.87  0.13  0.00  0.00  0.74  0.00
  YS02001759YS02001757    1.00   0.00  0.00  0.00  0.99  0.01  0.00  0.00  0.56  0.00
  YS02001762YS02001759    1.00   0.00  0.00  0.00  1.00  0.00  0.00  0.00  0.03  0.00
  YS02001765YS02001762    1.00   0.00  0.00  0.00  1.00  0.00  0.00  0.00  0.67  0.00
  YS02001767YS02001765    1.00   0.00  0.00  0.00  1.00  0.00  0.00  0.00  0.00  0.00
  YS02001770YS02001767    1.00   0.00  0.00  0.00  1.00  0.00  0.00  0.00  0.00  0.00
  YS02001774YS02001770    1.00   0.00  0.11  0.00  0.82  0.00  0.08  0.00  0.01  0.00
  YS02001779YS02001774    1.00   0.00  0.00  0.00  1.00  0.00  0.00  0.00  0.71  0.00
  YS02001783YS02001784    1.00   0.00  0.12  0.00  0.88  0.00  0.00  0.00  0.53  0.00
  YS02001784YS02001785    1.00   0.00  0.00  0.00  1.00  0.00  0.00  0.00  0.14  0.00
  YS02001786YS02001788    1.00   0.00  0.00  0.00  0.67  0.33  0.00  0.00  0.00  0.00
  YS02001788YS02001790    1.00   0.00  0.00  0.00  0.21  0.79  0.00  0.00  0.74  0.00
  YS02001790YS02001791    1.00   0.00  0.00  0.00  0.05  0.95  0.00  0.00  0.11  0.00
  YS02001791YS02001793    1.00   0.00  0.00  0.00  0.00  1.00  0.00  0.00  0.02  0.00
  YS02001793JiankangQianchi    1.00   0.00  0.00  0.00  0.85  0.15  0.00  0.00  0.95  0.00
  YS02001882YS02001884    1.00   0.11  0.00  0.00  0.89  0.00  0.00  0.00  0.00  0.00
  YS02001884YS02001887    1.00   0.08  0.02  0.00  0.90  0.00  0.00  0.00  0.00  0.00
  YS02001887YS02001890    1.00   0.00  0.00  0.00  0.93  0.00  0.06  0.00  0.00  0.00
  YS02001890YS02001895    1.00   0.01  0.10  0.00  0.89  0.00  0.00  0.00  0.00  0.00
  YS02001895YS02001898    1.00   0.11  0.00  0.00  0.88  0.00  0.00  0.00  0.00  0.00
  YS02001898YS02001901    1.00   0.11  0.00  0.00  0.89  0.00  0.00  0.00  0.00  0.00
  YS02001901YS02001904    1.00   0.11  0.00  0.00  0.89  0.00  0.00  0.00  0.00  0.00
  YS02001904YS02001907    1.00   0.00  0.11  0.00  0.89  0.00  0.00  0.00  0.00  0.00
  YS02001907YS02006553    1.00   0.00  0.06  0.00  0.94  0.00  0.00  0.00  0.00  0.00
  YS02001910YS02001907    1.00   0.00  0.00  0.00  0.93  0.00  0.00  0.06  0.11  0.00
  YS02001915YS02001910    1.00   0.00  0.00  0.00  0.98  0.02  0.00  0.00  0.11  0.00
  YS02001918YS02001915    1.00   0.00  0.02  0.00  0.95  0.03  0.00  0.00  0.65  0.00
  YS02001920YS02001918    1.00   0.00  0.02  0.00  0.98  0.00  0.00  0.00  0.00  0.00
  YS02001923YS02001920    1.00   0.00  0.00  0.00  1.00  0.00  0.00  0.00  0.80  0.00
  YS02001926YS02001923    1.00   0.00  0.09  0.00  0.23  0.00  0.69  0.00  0.00  0.00
  YS02001929YS02001926    1.00   0.00  0.11  0.00  0.89  0.00  0.00  0.00  0.71  0.00
  YS02006553YS02006556    1.00   0.05  0.00  0.00  0.95  0.00  0.00  0.00  0.03  0.00
  YS02006556YS02006558    1.00   0.00  0.01  0.00  0.99  0.00  0.00  0.00  0.00  0.00
  YS02006558YS02006561    1.00   0.11  0.00  0.00  0.21  0.67  0.00  0.00  0.14  0.00
  YS02006561YS02001783    1.00   0.11  0.00  0.00  0.30  0.58  0.00  0.00  0.61  0.00
  YS02163301YS02001633    1.00   0.00  0.11  0.00  0.89  0.00  0.00  0.00  0.00  0.00
  YS02163601YS02164001    1.00   0.00  0.09  0.00  0.91  0.00  0.00  0.00  0.00  0.00
  YS02164001YS02001641    1.00   0.03  0.06  0.00  0.91  0.00  0.00  0.00  0.05  0.00
  YSB1154YSB6556          1.00   0.11  0.00  0.00  0.89  0.00  0.00  0.00  0.02  0.00
  YSB1171HS02004479       1.00   0.07  0.00  0.00  0.92  0.00  0.00  0.01  0.10  0.00
  YSB1174YSB1171          1.00   0.08  0.02  0.00  0.91  0.00  0.00  0.00  0.00  0.00
  YSB6556YSB1171          1.00   0.07  0.03  0.00  0.89  0.00  0.00  0.00  0.00  0.00
  
  
  *************************
  Conduit Surcharge Summary
  *************************
  
  ----------------------------------------------------------------------------
                                                           Hours        Hours 
                         --------- Hours Full --------   Above Full   Capacity
  Conduit                Both Ends  Upstream  Dnstream   Normal Flow   Limited
  ----------------------------------------------------------------------------
  HS02004478WS02006287        0.61      0.61      0.79      0.01         0.01
  HS02004479HS02004480        0.79      0.79      0.81      0.01         0.01
  HS02004480HS02004478        0.73      0.79      0.73      1.78         0.73
  HS02004770HS02004777        0.69      0.69      0.69      0.10         0.07
  HS02004777HS02004785        0.64      0.64      0.69      0.01         0.01
  HS02004785HS02004788        0.63      0.64      0.63      1.60         0.54
  HS02004788HS02004792        0.63      0.63      0.75      0.01         0.01
  HS02004792HS02004799        0.75      0.75      0.88      0.01         0.01
  HS02004799HS02004480        0.79      0.79      0.88      0.99         0.01
  HS02004802HS02004478        0.73      0.73      0.80      0.19         0.01
  HS02004807HS02004802        0.78      0.78      0.79      0.35         0.35
  HS02004817HS02004807        0.78      0.78      1.44      0.01         0.01
  HS02004817HS02004824        0.63      0.63      1.44      0.01         0.01
  HS02004824HS02004830        0.60      0.60      0.63      0.01         0.01
  HS02004830HS02004837        0.56      0.56      0.60      0.01         0.01
  HS02004837HS02004842        0.56      0.56      0.70      0.01         0.01
  HS02004842HS02004848        0.53      0.53      0.70      0.01         0.01
  HS02004848HS02004852        0.53      0.53      0.55      0.02         0.01
  HS02004852HS02004856        0.55      0.55      0.58      0.01         0.01
  HS02004856HS02004862        0.54      0.54      0.58      0.01         0.01
  HS02004862HS02004870        0.58      0.58      0.60      0.25         0.24
  HS02004870HS02004876        0.60      0.60      0.70      0.01         0.01
  HS02004876HS02004881        0.68      0.70      0.68      1.61         0.68
  HS02004881HS02006253        0.68      0.68      2.01      0.01         0.01
  HS02004901HS02004770        0.69      0.69      0.70      0.03         0.01
  WS02003072WS02003073        0.01      0.01      0.01      2.46         0.01
  WS02004401WS02004402        1.76      1.76      1.79      1.61         1.59
  WS02004402WS02004403        1.79      1.79      1.80      1.76         1.74
  WS02004403WS02004404        1.80      1.80      1.97      0.01         0.03
  WS02004404WS02004405        1.93      1.97      1.93      3.01         1.93
  WS02004405WS02004406        1.90      1.93      1.90      2.12         1.90
  WS02004406WS02004407        0.01      0.01      1.90      0.01         0.01
  WS02004407WS02004409        0.01      0.01      1.16      0.01         0.01
  WS02004409WS02004410        1.10      1.16      1.10      1.69         1.10
  WS02004410WS02004411        1.05      1.10      1.05      1.72         1.05
  WS02004411WS02004412        0.92      1.05      0.92      1.75         0.92
  WS02004412WS02004413        0.92      0.92      1.54      0.01         0.01
  WS02004413WS02003067        0.01      0.01      1.54      0.01         0.01
  WS02006109WS02006110        2.10      2.10      2.30      2.11         0.01
  WS02006110WS02006113        1.52      1.52      2.28      0.35         0.01
  WS02006111WS02006112        1.50      1.50      2.39      0.01         0.01
  WS02006112WS02006115        1.70      1.70      2.16      0.01         0.01
  WS02006113WS02006111        1.52      1.52      1.52      1.61         1.51
  WS02006115WS02006116        1.71      1.71      1.71      1.69         1.67
  WS02006116WS02004401        1.76      1.76      1.76      1.73         1.72
  WS02006228WS02006109        2.28      2.30      2.28      2.46         2.28
  WS02006229WS02006228        2.28      2.28      2.28      2.37         2.27
  WS02006230WS02006229        2.32      2.33      2.32      3.43         1.06
  WS02006231WS02006230        2.00      2.00      2.07      2.78         1.22
  WS02006232WS02006231        2.04      2.04      2.22      0.06         0.19
  WS02006234WS02006232        2.07      2.07      2.22      0.03         0.13
  WS02006235WS02006234        1.98      2.00      2.04      2.45         1.19
  WS02006238WS02006235        2.07      2.07      2.19      0.01         0.45
  WS02006239WS02006238        2.13      2.18      2.13      1.38         0.23
  WS02006240WS02006239        2.06      2.11      2.07      1.36         0.19
  WS02006242WS02006240        2.08      2.09      2.18      1.61         1.09
  WS02006243WS02006242        2.13      2.13      2.16      0.01         0.09
  WS02006245WS02006243        2.10      2.12      2.10      0.29         0.23
  WS02006247WS02006245        2.10      2.14      2.10      2.07         0.65
  WS02006248WS02006247        2.09      2.09      2.13      0.01         0.11
  WS02006249WS02006248        2.08      2.08      2.11      0.83         0.01
  WS02006251WS02006249        2.10      2.10      2.11      2.13         2.07
  WS02006252WS02006251        2.10      2.13      2.51      2.18         0.12
  WS02006253WS02006251        2.10      2.10      2.12      0.93         0.02
  WS02006256WS02006235        2.54      2.72      6.87      0.87         0.02
  WS02006280WS02006229        0.93      0.93      1.09      0.01         0.01
  WS02006284WS02006280        0.82      0.82      0.91      0.01         0.01
  WS02006287WS02006284        0.72      0.72      0.83      0.38         0.38
  YS02001580YS02001583        1.55      1.55      1.59      0.01         0.01
  YS02001583YS02001586        1.55      1.55      1.66      0.01         0.01
  YS02001586YS02001590        1.67      1.67      1.73      0.01         0.01
  YS02001590YS02001593        1.73      1.73      1.75      1.76         0.01
  YS02001593YS02001596        1.74      1.74      1.84      0.01         0.01
  YS02001596YS02001600        1.88      1.88      1.94      0.01         0.01
  YS02001600YS02001601        1.98      1.98      2.18      0.01         0.01
  YS02001601YS02001602        2.10      2.10      2.21      1.96         0.01
  YS02001602YS02001605        2.06      2.06      2.10      2.85         0.01
  YS02001605YS02001607        2.02      2.06      2.02      2.15         2.02
  YS02001607YS02001610        1.69      1.69      1.71      0.01         0.01
  YS02001610YS02001613        1.68      1.68      1.71      0.01         0.01
  YS02001613YS02001616        1.64      1.64      1.68      0.01         0.01
  YS02001616YS02001619        1.63      1.63      1.64      0.56         0.42
  YS02001619YS02001622        1.63      1.63      1.63      1.75         1.60
  YS02001622YS02001625        1.63      1.63      1.79      0.01         0.01
  YS02001625YS02001629        1.56      1.56      1.79      0.01         0.01
  YS02001629YS02163301        1.78      1.78      1.78      0.63         0.29
  YS02001633YS02163601        1.80      1.80      1.83      0.51         0.51
  YS02001641YS02001644        1.70      1.73      1.70      2.20         1.66
  YS02001644YS02001647        1.42      1.42      1.70      0.01         0.01
  YS02001647YS02001649        1.42      1.42      1.50      0.01         0.01
  YS02001649YS02001757        1.49      1.50      1.53      0.34         0.20
  YS02001652YS02001649        1.38      1.38      1.50      0.18         0.18
  YS02001655YS02001652        1.24      1.24      1.36      0.17         0.17
  YS02001658YS02001655        0.88      0.88      1.24      0.13         0.13
  YS02001661YS02001658        0.50      0.50      0.88      0.11         0.11
  YS02001664YS02001661        0.28      0.28      0.58      0.01         0.01
  YS02001745YS02001748        0.26      0.26      0.75      0.01         0.01
  YS02001748YS02001751        0.82      0.82      1.02      0.04         0.04
  YS02001751YS02001754        1.02      1.02      1.29      0.03         0.02
  YS02001754YS02001757        1.32      1.32      1.53      0.01         0.01
  YS02001757CaochengTiaoxuchi        1.37      1.53      1.63      1.20         0.91
  YS02001759YS02001757        1.45      1.45      1.53      0.15         0.17
  YS02001762YS02001759        1.43      1.43      1.45      0.01         0.02
  YS02001765YS02001762        1.40      1.40      1.43      0.01         0.01
  YS02001767YS02001765        1.39      1.39      1.40      0.01         0.03
  YS02001770YS02001767        1.39      1.39      1.39      1.43         0.95
  YS02001774YS02001770        1.38      1.38      1.42      0.01         0.01
  YS02001779YS02001774        1.30      1.30      1.42      0.01         0.01
  YS02001783YS02001784        1.45      1.48      1.45      1.66         1.45
  YS02001784YS02001785        1.26      1.45      1.26      1.80         1.26
  YS02001786YS02001788        0.01      1.26      0.01      1.75         0.01
  YS02001790YS02001791        0.01      0.01      0.01      1.42         0.01
  YS02001793JiankangQianchi        0.01      0.01      7.17      0.01         0.01
  YS02001882YS02001884        1.38      1.38      1.40      0.01         0.01
  YS02001884YS02001887        1.45      1.45      1.46      0.01         0.01
  YS02001887YS02001890        1.48      1.48      1.50      0.58         0.01
  YS02001890YS02001895        1.37      1.37      1.52      0.01         0.01
  YS02001895YS02001898        1.36      1.36      1.37      0.01         0.01
  YS02001898YS02001901        1.37      1.37      1.44      0.01         0.01
  YS02001901YS02001904        1.43      1.43      1.44      0.01         0.01
  YS02001904YS02001907        1.43      1.43      1.73      0.01         0.01
  YS02001907YS02006553        1.81      1.81      1.84      0.23         0.24
  YS02001910YS02001907        1.52      1.52      1.72      0.43         0.43
  YS02001915YS02001910        1.38      1.38      1.52      0.01         0.06
  YS02001918YS02001915        1.23      1.23      1.38      0.01         0.01
  YS02001920YS02001918        1.23      1.23      1.26      0.23         0.01
  YS02001923YS02001920        1.17      1.17      1.26      0.01         0.01
  YS02001926YS02001923        0.61      0.61      0.66      0.38         0.01
  YS02001929YS02001926        0.45      0.45      0.66      0.01         0.01
  YS02006553YS02006556        1.63      1.63      1.73      0.19         0.19
  YS02006556YS02006558        1.68      1.68      1.74      0.17         0.01
  YS02006558YS02006561        1.29      1.61      1.29      1.78         1.29
  YS02006561YS02001783        1.18      1.18      1.48      0.01         0.01
  YS02163301YS02001633        1.78      1.78      1.82      0.25         0.01
  YS02163601YS02164001        1.74      1.74      1.83      0.23         0.01
  YS02164001YS02001641        1.73      1.74      1.73      1.26         1.17
  YSB1154YSB6556              0.85      0.85      1.02      0.01         0.01
  YSB1171HS02004479           0.75      0.75      1.03      0.01         0.01
  YSB1174YSB1171              0.92      0.92      1.32      0.01         0.01
  YSB6556YSB1171              0.85      0.85      1.52      0.01         0.01
  
  
  ***************
  Pumping Summary
  ***************
  
  ---------------------------------------------------------------------------------------------------------
                                                  Min       Avg       Max     Total     Power    % Time Off
                        Percent   Number of      Flow      Flow      Flow    Volume     Usage    Pump Curve
  Pump                 Utilized   Start-Ups       LPS       LPS       LPS  10^6 ltr     Kw-hr    Low   High
  ---------------------------------------------------------------------------------------------------------
  CC-R1                   25.75           8      0.00    927.73   1024.50     6.537    120.63    0.0   25.5
  CC-R2                   30.50          91      0.00   1023.24   1024.50     8.979    164.75    0.0   33.1
  CC-S1                   25.77          87      0.00    240.49    300.00     1.807     12.71    0.0    0.0
  CC-S2                   30.30          37      0.00    299.62    300.00     2.612     18.09    0.0    0.0
  JK-R1                    5.92          52      0.00   1215.05   1500.00     2.035     20.05    0.0    0.0
  JK-R2                    8.61          44      0.00   1493.71   1500.00     3.694     27.40    0.0    0.0
  JK-S                    15.27          80      0.00    439.05    450.00     1.916     30.53    0.0    0.0
  XR-1                    97.91           2      0.00     95.00     95.00     2.679      9.60    0.0    0.0
  XR-2                    93.94           2      0.00     95.00     95.00     2.570      8.76    0.0    0.0
  XR-3                     0.00           1      0.00     95.00     95.00     0.000      0.00    0.0    0.0
  XR-4                     0.00           1      0.00     95.00     95.00     0.000      0.00    0.0    0.0
  

  Analysis begun on:  Thu Jul 20 18:54:08 2023
  Analysis ended on:  Thu Jul 20 18:54:42 2023
  Total elapsed time: 00:00:34