
  OWA STORM WATER MANAGEMENT MODEL - VERSION v5.1.14 (OWA 2022-07-31)
  --------------------------------------------------------------

  WARNING 04: minimum elevation drop used for Conduit WS02004404WS02004405
  WARNING 03: negative offset ignored for Link YS02001904YS02001907
  
  *********************************************************
  NOTE: The summary statistics displayed in this report are
  based on results found at every computational time step,  
  not just on results from each reporting time step.
  *********************************************************
  
  ****************
  Analysis Options
  ****************
  Flow Units ............... LPS
  Process Models:
    Rainfall/Runoff ........ YES
    RDII ................... NO
    Snowmelt ............... NO
    Groundwater ............ NO
    Flow Routing ........... YES
    Ponding Allowed ........ NO
    Water Quality .......... NO
  Infiltration Method ...... HORTON
  Flow Routing Method ...... DYNWAVE
  Surcharge Method ......... EXTRAN
  Starting Date ............ 08/28/2015 08:00:00
  Ending Date .............. 08/28/2015 16:00:00
  Antecedent Dry Days ...... 8.0
  Report Time Step ......... 00:01:00
  Wet Time Step ............ 00:01:00
  Dry Time Step ............ 00:01:00
  Routing Time Step ........ 30.00 sec
  Variable Time Step ....... YES
  Maximum Trials ........... 8
  Number of Threads ........ 4
  Head Tolerance ........... 0.001500 m
  
  
  **************************        Volume         Depth
  Runoff Quantity Continuity     hectare-m            mm
  **************************     ---------       -------
  Total Precipitation ......        13.233       218.441
  Evaporation Loss .........         0.000         0.000
  Infiltration Loss ........         0.257         4.250
  Surface Runoff ...........        12.918       213.250
  Final Storage ............         0.061         1.011
  Continuity Error (%) .....        -0.032
  
  
  **************************        Volume        Volume
  Flow Routing Continuity        hectare-m      10^6 ltr
  **************************     ---------     ---------
  Dry Weather Inflow .......         0.630         6.296
  Wet Weather Inflow .......        12.917       129.167
  Groundwater Inflow .......         0.000         0.000
  RDII Inflow ..............         0.000         0.000
  External Inflow ..........         0.105         1.045
  External Outflow .........         3.936        39.361
  Flooding Loss ............         9.711        97.116
  Evaporation Loss .........         0.000         0.000
  Exfiltration Loss ........         0.000         0.000
  Initial Stored Volume ....         0.303         3.031
  Final Stored Volume ......         0.321         3.209
  Continuity Error (%) .....        -0.105
  
  
  *************************
  Highest Continuity Errors
  *************************
  Node YS02001884 (4.48%)
  Node YS02001583 (-3.61%)
  Node WS02006252 (-1.26%)
  Node HS02004842 (1.25%)
  
  
  ***************************
  Time-Step Critical Elements
  ***************************
  Link WS02006280WS02006229 (38.92%)
  Link WS02006252WS02006251 (17.01%)
  Link YS02001791YS02001793 (15.36%)
  Link WS02006238WS02006235 (8.33%)
  Link WS02004404WS02004405 (6.23%)
  
  
  ********************************
  Highest Flow Instability Indexes
  ********************************
  Link WS02006252WS02006251 (43)
  Link WS02006238WS02006235 (39)
  Link WS02004404WS02004405 (35)
  Link YS02001602YS02001605 (34)
  Link YS02001605YS02001607 (33)
  
  
  *************************
  Routing Time Step Summary
  *************************
  Minimum Time Step           :     0.01 sec
  Average Time Step           :     2.28 sec
  Maximum Time Step           :     7.27 sec
  Percent in Steady State     :    -0.00
  Average Iterations per Step :     4.82
  Percent Not Converging      :    28.62
  
  
  ***************************
  Subcatchment Runoff Summary
  ***************************
  
  ------------------------------------------------------------------------------------------------------------------------------
                            Total      Total      Total      Total     Imperv       Perv      Total       Total     Peak  Runoff
                           Precip      Runon       Evap      Infil     Runoff     Runoff     Runoff      Runoff   Runoff   Coeff
  Subcatchment                 mm         mm         mm         mm         mm         mm         mm    10^6 ltr      LPS
  ------------------------------------------------------------------------------------------------------------------------------
  sub0                      99.63       0.00       0.00       1.04      91.43       5.94      97.37        0.08    54.45   0.977
  sub1                      99.63       0.00       0.00       1.77      87.44       9.19      96.63        0.64   356.08   0.970
  sub10                     99.63       0.00       0.00       1.25      90.40       6.72      97.12        1.07   610.44   0.975
  sub11                     99.63       0.00       0.00       1.23      90.42       6.74      97.16        1.13   682.26   0.975
  sub12                     99.63       0.00       0.00       2.00      85.53      10.96      96.48        0.84   549.74   0.968
  sub14                     99.63       0.00       0.00       1.41      89.43       7.57      96.99        0.92   540.61   0.974
  sub15                     99.63       0.00       0.00       5.43      68.79      24.47      93.25        1.60   809.72   0.936
  sub16                     99.63       0.00       0.00       5.65      65.86      27.24      93.10        0.97   542.97   0.934
  sub17                     99.63       0.00       0.00       5.50      66.84      26.39      93.23        0.80   440.87   0.936
  sub2                      99.63       0.00       0.00       7.69      61.87      29.18      91.05        0.85   354.14   0.914
  sub22                     99.63       0.00       0.00       8.20      56.02      34.65      90.68        5.73  2651.71   0.910
  sub23                     99.63       0.00       0.00       6.71      61.92      30.16      92.08        4.39  2216.95   0.924
  sub3                      99.63       0.00       0.00       8.36      61.83      28.51      90.34        2.03   765.10   0.907
  sub4                      99.63       0.00       0.00       1.96      87.27       9.01      96.27        2.01   848.05   0.966
  sub5                      99.63       0.00       0.00       1.09      91.37       5.89      97.26        1.10   616.15   0.976
  sub60                    316.61       0.00       0.00       1.97     277.51      36.04     313.55        4.12  3066.39   0.990
  sub61                    316.61       0.00       0.00       2.87     261.75      50.97     312.72        5.74  4276.60   0.988
  sub62                    316.61       0.00       0.00       1.31     290.08      24.03     314.11        8.61  6156.70   0.992
  sub63                    316.61       0.00       0.00       5.39     223.90      86.45     310.35        7.04  5064.97   0.980
  sub64                    316.61       0.00       0.00       2.71     267.99      44.79     312.78        7.51  5221.36   0.988
  sub65                    316.61       0.00       0.00       2.35     274.27      38.82     313.09        8.62  5927.19   0.989
  sub66                    316.61       0.00       0.00       6.86     223.76      84.97     308.73       14.40  8981.20   0.975
  sub67                    316.61       0.00       0.00       1.24     290.15      24.10     314.24        5.84  4477.37   0.993
  sub68                    316.61       0.00       0.00       2.38     271.19      41.96     313.14        8.62  6271.98   0.989
  sub69                    316.61       0.00       0.00       2.22     269.08      45.28     314.36       11.64  7924.18   0.993
  sub7                      99.63       0.00       0.00       1.38      89.44       7.59      97.03        0.33   202.85   0.974
  sub70                    316.61       0.00       0.00       7.68     208.83      99.98     308.81        8.92  5219.07   0.975
  sub71                    316.61       0.00       0.00       1.36     290.03      23.98     314.01        8.21  5660.97   0.992
  sub72                    316.61       0.00       0.00       1.21     293.10      20.96     314.06        4.32  2877.55   0.992
  sub8                      99.63       0.00       0.00       1.40      89.43       7.57      97.00        0.62   368.53   0.974
  sub9                      99.63       0.00       0.00       1.40      89.43       7.57      97.00        0.47   274.75   0.974
  
  
  ******************
  Node Depth Summary
  ******************
  
  ---------------------------------------------------------------------------------
                                 Average  Maximum  Maximum  Time of Max    Reported
                                   Depth    Depth      HGL   Occurrence   Max Depth
  Node                 Type       Meters   Meters   Meters  days hr:min      Meters
  ---------------------------------------------------------------------------------
  HS02004478           JUNCTION     0.31     1.64    10.87     0  01:30        1.59
  HS02004479           JUNCTION     0.39     1.70    10.90     0  01:23        1.67
  HS02004480           JUNCTION     0.36     1.67    10.91     0  01:23        1.65
  HS02004770           JUNCTION     0.35     1.42    11.25     0  01:22        1.42
  HS02004777           JUNCTION     0.37     1.48    11.28     0  01:22        1.48
  HS02004785           JUNCTION     0.26     1.49    11.39     0  01:22        1.47
  HS02004788           JUNCTION     0.23     1.42    11.32     0  01:22        1.42
  HS02004792           JUNCTION     0.30     1.60    11.12     0  01:21        1.60
  HS02004799           JUNCTION     0.42     1.76    10.97     0  01:23        1.76
  HS02004802           JUNCTION     0.41     1.92    11.05     0  01:30        1.92
  HS02004807           JUNCTION     0.39     1.92    11.09     0  01:23        1.92
  HS02004817           JUNCTION     0.69     2.44    11.29     0  01:24        2.44
  HS02004824           JUNCTION     0.27     2.01    11.41     0  01:24        2.01
  HS02004830           JUNCTION     0.26     2.03    11.50     0  01:23        1.99
  HS02004837           JUNCTION     0.23     2.04    11.62     0  01:24        1.91
  HS02004842           JUNCTION     0.52     2.22    11.49     0  01:24        2.22
  HS02004848           JUNCTION     0.21     2.07    11.67     0  01:24        2.07
  HS02004852           JUNCTION     0.22     2.12    11.63     0  01:24        2.12
  HS02004856           JUNCTION     0.28     2.07    11.50     0  01:24        2.05
  HS02004862           JUNCTION     0.24     2.00    11.38     0  01:24        2.00
  HS02004870           JUNCTION     0.23     2.10    11.39     0  01:24        2.04
  HS02004876           JUNCTION     0.29     2.26    11.29     0  01:30        2.15
  HS02004881           JUNCTION     0.22     2.07    11.10     0  01:30        1.91
  HS02004901           JUNCTION     0.35     1.42    11.24     0  01:22        1.42
  WS02001211           JUNCTION     0.63     0.89     5.73     0  01:30        0.88
  WS02001212           JUNCTION     0.38     0.71     5.77     0  01:30        0.71
  WS02001213           JUNCTION     0.61     1.03     5.79     0  01:29        0.88
  WS02003059           JUNCTION     0.67     1.01     5.70     0  01:31        1.01
  WS02003060           JUNCTION     0.41     0.72     5.65     0  01:30        0.72
  WS02003066           JUNCTION     0.25     0.47     6.02     0  01:26        0.47
  WS02003067           JUNCTION     0.56     0.93     6.25     0  01:26        0.93
  WS02003069           JUNCTION     0.46     0.81     5.39     0  01:31        0.80
  WS02003072           JUNCTION     0.51     0.84     5.21     0  01:31        0.84
  WS02003073           JUNCTION     0.31     0.54     4.60     0  01:32        0.54
  WS02004138           JUNCTION     0.13     0.14     7.39     0  00:29        0.14
  WS02004139           JUNCTION     0.57     0.81     5.72     0  01:31        0.80
  WS02004401           JUNCTION     0.84     2.42     8.42     0  01:22        2.02
  WS02004402           JUNCTION     0.85     2.33     8.29     0  01:22        1.95
  WS02004403           JUNCTION     0.85     2.19     8.12     0  01:22        1.87
  WS02004404           JUNCTION     0.90     2.14     7.99     0  01:22        2.09
  WS02004405           JUNCTION     0.89     2.04     7.89     0  01:30        2.04
  WS02004406           JUNCTION     0.87     2.24     8.07     0  01:30        2.24
  WS02004407           JUNCTION     0.31     1.26     7.57     0  01:25        1.05
  WS02004409           JUNCTION     0.60     1.69     7.46     0  01:30        1.69
  WS02004410           JUNCTION     0.60     1.75     7.47     0  01:24        1.36
  WS02004411           JUNCTION     0.59     1.59     7.27     0  01:24        1.25
  WS02004412           JUNCTION     0.59     1.24     6.88     0  01:25        1.14
  WS02004413           JUNCTION     0.71     1.76     7.23     0  01:24        1.17
  WS02006109           JUNCTION     1.11     2.64     9.26     0  01:22        2.64
  WS02006110           JUNCTION     1.02     2.76     9.34     0  01:22        2.55
  WS02006111           JUNCTION     0.52     2.57     9.28     0  01:22        1.88
  WS02006112           JUNCTION     1.07     2.68     8.56     0  01:22        2.56
  WS02006113           JUNCTION     0.60     2.41     9.30     0  01:22        1.92
  WS02006115           JUNCTION     0.78     2.56     8.70     0  01:22        2.13
  WS02006116           JUNCTION     0.84     2.57     8.61     0  01:22        2.12
  WS02006228           JUNCTION     1.20     3.03     9.68     0  01:22        3.03
  WS02006229           JUNCTION     1.22     3.25     9.94     0  01:22        3.23
  WS02006230           JUNCTION     1.13     2.65     9.39     0  01:19        2.65
  WS02006231           JUNCTION     0.85     2.24     9.36     0  01:19        2.24
  WS02006232           JUNCTION     0.94     2.18     9.22     0  01:19        2.18
  WS02006234           JUNCTION     0.83     1.96     9.12     0  01:19        1.96
  WS02006235           JUNCTION     0.84     2.00     9.16     0  01:19        1.96
  WS02006238           JUNCTION     0.86     2.15     9.29     0  01:19        1.94
  WS02006239           JUNCTION     0.80     2.03     9.24     0  01:19        2.02
  WS02006240           JUNCTION     0.74     2.10     9.39     0  01:20        2.10
  WS02006242           JUNCTION     0.78     1.55     8.82     0  01:20        1.55
  WS02006243           JUNCTION     0.66     1.48     8.90     0  01:20        1.48
  WS02006245           JUNCTION     0.64     1.56     9.04     0  01:20        1.32
  WS02006247           JUNCTION     0.65     1.47     8.97     0  01:20        1.29
  WS02006248           JUNCTION     0.59     1.10     8.69     0  01:20        1.10
  WS02006249           JUNCTION     0.61     1.09     8.69     0  01:20        1.09
  WS02006251           JUNCTION     0.81     2.21     9.88     0  01:24        2.17
  WS02006252           JUNCTION     0.58     1.50     9.74     0  00:00        1.50
  WS02006253           JUNCTION     0.92     3.33    10.97     0  01:21        3.18
  WS02006256           JUNCTION     1.18     2.35     9.28     0  00:00        2.35
  WS02006280           JUNCTION     0.39     1.79    10.06     0  01:30        1.75
  WS02006284           JUNCTION     0.64     2.04    10.44     0  01:22        1.95
  WS02006287           JUNCTION     0.38     1.79    10.75     0  01:30        1.74
  WSF200               JUNCTION     0.25     0.57     5.80     0  01:24        0.55
  YS02001580           JUNCTION     0.24     0.99     9.53     0  01:22        0.80
  YS02001583           JUNCTION     0.28     1.00     9.50     0  01:22        0.87
  YS02001586           JUNCTION     0.42     1.13     9.30     0  01:22        1.13
  YS02001590           JUNCTION     0.56     1.40     9.26     0  01:30        1.40
  YS02001593           JUNCTION     0.48     1.42     9.28     0  03:13        1.36
  YS02001596           JUNCTION     0.63     1.80     9.22     0  01:30        1.80
  YS02001600           JUNCTION     0.74     1.87     9.00     0  01:30        1.87
  YS02001601           JUNCTION     0.93     2.06     8.90     0  01:21        2.06
  YS02001602           JUNCTION     0.82     1.87     8.77     0  01:30        1.87
  YS02001605           JUNCTION     0.76     1.78     8.68     0  01:30        1.78
  YS02001607           JUNCTION     0.72     1.68     8.53     0  01:30        1.68
  YS02001610           JUNCTION     0.76     1.68     8.48     0  01:30        1.68
  YS02001613           JUNCTION     0.72     1.68     8.52     0  02:26        1.68
  YS02001616           JUNCTION     0.66     1.61     8.52     0  02:08        1.61
  YS02001619           JUNCTION     0.64     1.61     8.54     0  01:30        1.61
  YS02001622           JUNCTION     0.62     1.62     8.52     0  02:38        1.62
  YS02001625           JUNCTION     0.86     1.78     8.38     0  01:30        1.78
  YS02001629           JUNCTION     0.78     1.85     8.40     0  01:47        1.85
  YS02001633           JUNCTION     0.87     2.08     8.53     0  02:23        2.08
  YS02001641           JUNCTION     0.83     1.98     8.42     0  02:29        1.98
  YS02001644           JUNCTION     0.81     1.92     8.35     0  01:48        1.92
  YS02001647           JUNCTION     0.60     1.80     8.41     0  02:26        1.79
  YS02001649           JUNCTION     0.68     2.05     8.44     0  02:22        2.05
  YS02001652           JUNCTION     0.56     2.16     8.76     0  02:29        2.16
  YS02001655           JUNCTION     0.48     2.20     9.05     0  02:26        2.20
  YS02001658           JUNCTION     0.40     2.30     9.44     0  02:26        2.30
  YS02001661           JUNCTION     0.39     2.46     9.86     0  02:26        2.46
  YS02001664           JUNCTION     0.24     2.31    10.23     0  02:26        2.31
  YS02001745           JUNCTION     0.25     2.35     9.87     0  02:35        2.35
  YS02001748           JUNCTION     0.36     2.27     9.35     0  02:33        2.27
  YS02001751           JUNCTION     0.42     2.20     9.08     0  02:38        2.20
  YS02001754           JUNCTION     0.51     2.20     8.81     0  02:38        2.18
  YS02001757           JUNCTION     0.70     2.21     8.47     0  02:28        2.21
  YS02001759           JUNCTION     0.64     2.21     8.57     0  02:25        2.21
  YS02001762           JUNCTION     0.63     2.15     8.55     0  02:26        2.15
  YS02001765           JUNCTION     0.60     2.10     8.55     0  02:38        2.10
  YS02001767           JUNCTION     0.59     2.03     8.52     0  02:29        2.03
  YS02001770           JUNCTION     0.60     1.95     8.44     0  02:13        1.95
  YS02001774           JUNCTION     0.66     2.05     8.47     0  02:26        2.05
  YS02001779           JUNCTION     0.47     1.68     8.37     0  01:55        1.68
  YS02001783           JUNCTION     0.46     1.66     7.80     0  02:38        1.66
  YS02001784           JUNCTION     0.44     1.37     7.43     0  02:38        1.37
  YS02001786           JUNCTION     0.36     1.00     7.03     0  02:31        0.99
  YS02001788           JUNCTION     0.25     0.69     6.67     0  02:31        0.69
  YS02001790           JUNCTION     0.29     0.79     6.43     0  02:30        0.74
  YS02001791           JUNCTION     0.18     0.47     5.94     0  02:30        0.47
  YS02001793           JUNCTION     0.10     0.37     5.20     0  02:31        0.35
  YS02001882           JUNCTION     0.59     1.83     8.55     0  01:30        1.83
  YS02001884           JUNCTION     0.67     1.93     8.55     0  01:30        1.93
  YS02001887           JUNCTION     0.75     2.00     8.54     0  01:30        2.00
  YS02001890           JUNCTION     0.76     1.81     8.32     0  01:30        1.81
  YS02001895           JUNCTION     0.54     1.58     8.32     0  02:38        1.57
  YS02001898           JUNCTION     0.55     1.74     8.48     0  02:38        1.74
  YS02001901           JUNCTION     0.65     1.74     8.35     0  02:26        1.74
  YS02001904           JUNCTION     0.63     1.85     8.48     0  01:30        1.85
  YS02001907           JUNCTION     0.94     1.96     8.25     0  01:30        1.96
  YS02001910           JUNCTION     0.78     2.10     8.61     0  01:30        2.10
  YS02001915           JUNCTION     0.62     2.00     8.72     0  01:30        2.00
  YS02001918           JUNCTION     0.45     1.81     8.88     0  02:26        1.81
  YS02001920           JUNCTION     0.54     2.05     9.06     0  02:29        2.05
  YS02001923           JUNCTION     0.40     1.97     9.23     0  02:29        1.97
  YS02001926           JUNCTION     0.40     1.90     9.35     0  02:29        1.90
  YS02001929           JUNCTION     0.30     1.78     9.47     0  02:26        1.78
  YS02006553           JUNCTION     0.95     2.19     8.47     0  01:30        2.19
  YS02006556           JUNCTION     0.93     2.39     8.70     0  01:30        2.39
  YS02006558           JUNCTION     0.98     2.50     8.77     0  01:30        2.50
  YS02006561           JUNCTION     0.32     1.34     8.00     0  02:38        1.34
  YS02163301           JUNCTION     0.81     2.01     8.53     0  02:38        2.01
  YS02163601           JUNCTION     0.89     2.08     8.48     0  02:26        2.08
  YS02164001           JUNCTION     0.82     1.98     8.44     0  02:26        1.97
  YSB1154              JUNCTION     0.53     2.10    11.16     0  01:30        2.04
  YSB1171              JUNCTION     0.66     1.95    10.85     0  01:22        1.95
  YSB1174              JUNCTION     0.48     1.88    10.99     0  01:25        1.88
  YSB6556              JUNCTION     0.43     1.80    10.97     0  01:22        1.79
  CC-1                 OUTFALL      0.00     0.00     0.00     0  00:00        0.00
  CC-2                 OUTFALL      0.00     0.00     0.00     0  00:00        0.00
  JK-1                 OUTFALL      0.00     0.00     0.00     0  00:00        0.00
  JK-2                 OUTFALL      0.00     0.00     0.00     0  00:00        0.00
  WSC                  OUTFALL      0.31     0.53     1.20     0  01:33        0.53
  CC-storage           STORAGE      0.91     1.95     7.45     0  02:55        1.95
  JK-storage           STORAGE      1.53     4.23     5.03     0  02:25        4.22
  XR-storage           STORAGE      7.78     9.26     7.26     0  08:00        9.26
  
  
  *******************
  Node Inflow Summary
  *******************
  
  -------------------------------------------------------------------------------------------------
                                  Maximum  Maximum                  Lateral       Total        Flow
                                  Lateral    Total  Time of Max      Inflow      Inflow     Balance
                                   Inflow   Inflow   Occurrence      Volume      Volume       Error
  Node                 Type           LPS      LPS  days hr:min    10^6 ltr    10^6 ltr     Percent
  -------------------------------------------------------------------------------------------------
  HS02004478           JUNCTION      0.00  2360.30     0  01:30           0        11.6      -0.007
  HS02004479           JUNCTION      0.00   631.94     0  01:23           0        1.13       0.080
  HS02004480           JUNCTION      0.00  2255.74     0  01:23           0         8.5       0.019
  HS02004770           JUNCTION   2216.95  2216.95     0  01:28        4.39        4.67       0.063
  HS02004777           JUNCTION      0.03   992.84     0  01:22    0.000864        2.33       0.233
  HS02004785           JUNCTION      0.15   992.90     0  01:22     0.00432        2.32      -0.013
  HS02004788           JUNCTION    811.39   912.28     0  01:27        1.65        3.97      -0.011
  HS02004792           JUNCTION   2651.99  3553.88     0  01:28        5.74         9.7       0.002
  HS02004799           JUNCTION    540.61  1682.71     0  01:28       0.923        7.89       0.044
  HS02004802           JUNCTION      0.00  1258.76     0  01:30           0        3.39       0.118
  HS02004807           JUNCTION    682.26  1873.25     0  01:27        1.13        3.83       0.100
  HS02004817           JUNCTION      0.60  1197.04     0  01:31      0.0173        2.75       0.623
  HS02004824           JUNCTION    848.10  1426.73     0  01:31        2.01        3.09       0.014
  HS02004830           JUNCTION      0.15   884.99     0  01:23     0.00432        1.34       0.083
  HS02004837           JUNCTION    616.79  1217.73     0  01:23        1.25        1.76       0.042
  HS02004842           JUNCTION      0.00  1156.20     0  01:23           0        1.04       1.266
  HS02004848           JUNCTION    765.10  1461.30     0  01:23        2.03        2.72      -0.009
  HS02004852           JUNCTION      0.00  1477.58     0  01:24           0        2.41       0.010
  HS02004856           JUNCTION    274.75  1586.70     0  01:24       0.467        2.87       0.032
  HS02004862           JUNCTION    354.34  1793.54     0  01:24       0.854        3.73      -0.023
  HS02004870           JUNCTION    368.53  1648.12     0  01:24        0.62        4.19      -0.057
  HS02004876           JUNCTION    356.08  1560.15     0  01:30       0.643        4.83       0.014
  HS02004881           JUNCTION    202.85  1708.65     0  01:30       0.327        5.15       0.005
  HS02004901           JUNCTION    542.97   754.00     0  01:29       0.975        1.52       0.119
  WS02001211           JUNCTION      7.35   355.41     0  01:27       0.212        5.46       0.608
  WS02001212           JUNCTION      0.00   516.50     0  01:26           0        5.43       0.287
  WS02001213           JUNCTION      0.00   468.11     0  01:26           0        5.43       0.317
  WS02003059           JUNCTION      0.00   518.21     0  01:25           0        5.44       0.584
  WS02003060           JUNCTION     16.53  1646.07     0  01:32       0.476          16       0.092
  WS02003066           JUNCTION      0.00  1418.10     0  01:26           0        10.1       0.015
  WS02003067           JUNCTION      0.00  1374.98     0  01:25           0        10.1       0.043
  WS02003069           JUNCTION      0.32  1613.63     0  01:31     0.00922        15.9       0.098
  WS02003072           JUNCTION      0.00  1598.64     0  01:31           0        15.9       0.132
  WS02003073           JUNCTION      1.82  1600.97     0  01:32      0.0524        15.9       0.135
  WS02004138           JUNCTION      0.00   380.00     0  00:00           0        5.25       0.053
  WS02004139           JUNCTION      0.32   355.83     0  01:27     0.00924        5.26       0.509
  WS02004401           JUNCTION      0.00  1394.10     0  01:25           0        10.2       0.104
  WS02004402           JUNCTION      0.00  1394.72     0  01:25           0        10.2       0.106
  WS02004403           JUNCTION      0.00  1394.01     0  01:25           0        10.2       0.101
  WS02004404           JUNCTION      0.16  1392.67     0  01:25     0.00467        10.2       0.084
  WS02004405           JUNCTION      0.04  1391.46     0  01:25      0.0011        10.2       0.127
  WS02004406           JUNCTION      0.00  1393.25     0  01:25           0        10.2       0.210
  WS02004407           JUNCTION      0.00  1393.79     0  01:25           0        10.1       0.015
  WS02004409           JUNCTION      0.00  1368.83     0  01:26           0        10.1       0.034
  WS02004410           JUNCTION      0.00  1374.17     0  01:30           0        10.1       0.049
  WS02004411           JUNCTION      0.00  1370.78     0  01:25           0        10.1       0.058
  WS02004412           JUNCTION      0.00  1372.02     0  01:25           0        10.1       0.078
  WS02004413           JUNCTION      0.00  1373.55     0  01:25           0        10.1       0.126
  WS02006109           JUNCTION      1.23  1291.89     0  01:25      0.0354        9.96       0.087
  WS02006110           JUNCTION      0.00  1252.87     0  01:22           0        9.45       0.085
  WS02006111           JUNCTION      0.00  1249.38     0  01:22           0        9.44       0.010
  WS02006112           JUNCTION    440.87  1395.26     0  01:25         0.8        10.2       0.178
  WS02006113           JUNCTION      0.00  1252.23     0  01:22           0        9.44       0.025
  WS02006115           JUNCTION      0.00  1394.66     0  01:25           0        10.2       0.073
  WS02006116           JUNCTION      0.00  1394.43     0  01:25           0        10.2       0.005
  WS02006228           JUNCTION      0.00  1297.15     0  01:30           0        9.93       0.035
  WS02006229           JUNCTION      0.00  2312.76     0  01:30           0        13.6       0.050
  WS02006230           JUNCTION     10.28  1029.06     0  01:25       0.296        5.62       0.175
  WS02006231           JUNCTION      0.00   535.60     0  03:38           0        3.79      -0.142
  WS02006232           JUNCTION      0.00   532.60     0  03:38           0         3.8       0.161
  WS02006234           JUNCTION      0.00   526.86     0  03:36           0        3.79      -0.146
  WS02006235           JUNCTION      0.00   519.46     0  03:38           0        3.75       0.128
  WS02006238           JUNCTION      0.00   433.48     0  03:39           0         3.4      -0.142
  WS02006239           JUNCTION      0.00   432.26     0  03:39           0        3.39      -0.115
  WS02006240           JUNCTION      0.00   432.16     0  03:39           0        3.39       0.021
  WS02006242           JUNCTION      0.00   432.49     0  03:39           0        3.39       0.055
  WS02006243           JUNCTION      0.00   433.86     0  03:39           0        2.85      -0.056
  WS02006245           JUNCTION      0.00   436.18     0  01:20           0        2.86       0.310
  WS02006247           JUNCTION      0.00   490.10     0  01:20           0        2.86       0.000
  WS02006248           JUNCTION      0.00   507.26     0  01:20           0        3.26      -0.081
  WS02006249           JUNCTION      0.00  1386.13     0  01:27           0        8.69       0.074
  WS02006251           JUNCTION      0.08  1737.37     0  01:27     0.00222        9.07       0.029
  WS02006252           JUNCTION      0.00   951.37     0  01:26           0        5.38      -1.246
  WS02006253           JUNCTION     54.45  1737.04     0  01:27      0.0789        5.31       0.048
  WS02006256           JUNCTION      0.00   450.00     0  00:11           0        1.67      -0.492
  WS02006280           JUNCTION      0.00  2312.25     0  01:30           0        11.6       0.000
  WS02006284           JUNCTION      0.10  2315.39     0  01:30     0.00275        11.6       0.014
  WS02006287           JUNCTION      0.00  2339.40     0  01:30           0        11.6       0.011
  WSF200               JUNCTION      0.00  1429.30     0  01:26           0        10.1       0.008
  YS02001580           JUNCTION      0.00    68.55     0  01:22           0     0.00474       2.077
  YS02001583           JUNCTION      0.00   103.25     0  01:22           0      0.0167      -3.487
  YS02001586           JUNCTION   5219.07  5219.10     0  02:37        8.92        8.93       0.016
  YS02001590           JUNCTION      0.00   380.70     0  03:13           0        2.64      -0.045
  YS02001593           JUNCTION      0.00   373.40     0  03:13           0        2.64       0.011
  YS02001596           JUNCTION      0.00   354.80     0  03:13           0        2.64       0.003
  YS02001600           JUNCTION      0.00   346.59     0  03:13           0        2.64       0.025
  YS02001601           JUNCTION   7924.18  8241.68     0  02:37        11.6        14.3       0.011
  YS02001602           JUNCTION      0.00   511.16     0  01:21           0        3.67       0.019
  YS02001605           JUNCTION      0.00   510.84     0  01:21           0        3.31       0.024
  YS02001607           JUNCTION      0.00   510.81     0  01:21           0        3.31       0.060
  YS02001610           JUNCTION      0.00   957.37     0  02:52           0        5.46       0.048
  YS02001613           JUNCTION      0.00   621.29     0  02:52           0        3.73       0.040
  YS02001616           JUNCTION      0.00   630.41     0  02:38           0        3.73       0.013
  YS02001619           JUNCTION   8981.20  8981.20     0  02:37        14.4          16       0.003
  YS02001622           JUNCTION      0.00  1054.00     0  02:29           0         7.9       0.001
  YS02001625           JUNCTION      0.00  1505.52     0  02:30           0        9.43       0.106
  YS02001629           JUNCTION      0.00  1138.97     0  02:29           0        6.08       0.012
  YS02001633           JUNCTION   5927.39  5927.39     0  02:37        8.62          12       0.031
  YS02001641           JUNCTION      0.00  1327.38     0  01:33           0        7.36       0.039
  YS02001644           JUNCTION   5221.40  6973.38     0  02:37        7.51        16.2       0.025
  YS02001647           JUNCTION      0.00  1684.78     0  01:33           0        8.34       0.009
  YS02001649           JUNCTION      0.00  3236.76     0  02:38           0        13.6       0.007
  YS02001652           JUNCTION      0.00  2429.14     0  02:30           0        6.15      -0.028
  YS02001655           JUNCTION      0.15  2731.44     0  02:37     0.00443        6.36       0.022
  YS02001658           JUNCTION      0.00  2795.01     0  02:38           0        6.38      -0.026
  YS02001661           JUNCTION      0.00  2805.26     0  02:38           0        6.39       0.001
  YS02001664           JUNCTION   5064.97  5064.97     0  02:36        7.04        7.04      -0.004
  YS02001745           JUNCTION   3066.39  3066.39     0  02:36        4.12        4.12       0.029
  YS02001748           JUNCTION      0.04  3064.35     0  02:36      0.0013        4.12      -0.044
  YS02001751           JUNCTION      0.01  2355.39     0  02:38    0.000317        4.01       0.030
  YS02001754           JUNCTION      0.26  2360.12     0  02:38     0.00749        4.02      -0.045
  YS02001757           JUNCTION      0.00  3761.22     0  02:36           0        21.3       0.032
  YS02001759           JUNCTION   4276.64  4276.64     0  02:36        5.74        8.34      -0.004
  YS02001762           JUNCTION      0.00   730.69     0  01:57           0        3.34       0.007
  YS02001765           JUNCTION      0.00   730.54     0  01:57           0        3.34       0.008
  YS02001767           JUNCTION      0.54   730.65     0  01:57      0.0154        3.34       0.007
  YS02001770           JUNCTION   6156.85  6879.02     0  02:36        8.61        9.39       0.001
  YS02001774           JUNCTION      0.00   852.17     0  02:30           0        2.28       0.043
  YS02001779           JUNCTION      0.01   851.79     0  02:24    0.000144        2.23       0.005
  YS02001783           JUNCTION      0.00  1321.63     0  02:38           0        8.28       0.004
  YS02001784           JUNCTION      1.06  1322.71     0  02:38      0.0305        8.31       0.006
  YS02001786           JUNCTION      0.06  1325.43     0  02:38     0.00162        8.32       0.008
  YS02001788           JUNCTION      0.07  1327.95     0  02:38     0.00204        8.32       0.003
  YS02001790           JUNCTION      0.15  1339.90     0  02:31     0.00446        8.32       0.023
  YS02001791           JUNCTION      0.00  1418.39     0  02:30           0        8.32      -0.045
  YS02001793           JUNCTION      0.00  1438.92     0  02:31           0        8.32       0.003
  YS02001882           JUNCTION      0.00    39.31     0  01:21           0      0.0146       4.393
  YS02001884           JUNCTION      0.00    75.98     0  01:14           0      0.0518       4.685
  YS02001887           JUNCTION   4477.82  4477.82     0  02:36        5.86        5.89       0.075
  YS02001890           JUNCTION      0.00  2052.03     0  02:38           0        5.08       0.106
  YS02001895           JUNCTION      0.00   527.60     0  02:38           0        2.84       0.082
  YS02001898           JUNCTION      0.00   518.94     0  02:16           0        2.84      -0.011
  YS02001901           JUNCTION      0.00   530.45     0  02:38           0        2.84       0.126
  YS02001904           JUNCTION      0.00   521.61     0  02:26           0        2.85       0.101
  YS02001907           JUNCTION      0.00  4671.77     0  02:39           0        13.7       0.136
  YS02001910           JUNCTION      0.00  1993.21     0  02:29           0        8.41       0.084
  YS02001915           JUNCTION   5660.99  6882.68     0  02:37        8.21        11.9       0.016
  YS02001918           JUNCTION      0.00  1683.21     0  02:38           0        4.04       0.012
  YS02001920           JUNCTION      2.87  1682.08     0  02:38      0.0827        4.04       0.023
  YS02001923           JUNCTION      0.04  1679.32     0  02:38     0.00109        3.96       0.004
  YS02001926           JUNCTION      0.05  1684.50     0  02:38      0.0015        3.96      -0.007
  YS02001929           JUNCTION   2877.55  2877.55     0  02:37        4.32        4.32      -0.003
  YS02006553           JUNCTION      0.00  2160.65     0  02:37           0        5.42       0.220
  YS02006556           JUNCTION      0.00  2162.10     0  02:38           0        5.43       0.149
  YS02006558           JUNCTION   6272.86  6272.86     0  02:36        8.64        11.6       0.026
  YS02006561           JUNCTION      0.00  1322.39     0  02:38           0        8.28       0.001
  YS02163301           JUNCTION      0.00  1138.94     0  02:30           0        6.08       0.028
  YS02163601           JUNCTION      0.11  1329.17     0  01:33     0.00317        7.35       0.070
  YS02164001           JUNCTION      0.00  1328.26     0  01:33           0        7.35       0.038
  YSB1154              JUNCTION    616.15   616.15     0  01:28         1.1         1.1       0.134
  YSB1171              JUNCTION      0.00  1372.38     0  01:28           0        2.19       0.289
  YSB1174              JUNCTION    549.74   549.74     0  01:27       0.843       0.844       0.143
  YSB6556              JUNCTION      0.00   616.33     0  01:28           0         1.1       0.102
  CC-1                 OUTFALL       0.00  1024.50     0  00:01           0        6.67       0.000
  CC-2                 OUTFALL       0.00  1024.50     0  00:01           0          10       0.000
  JK-1                 OUTFALL       0.00  1500.00     0  02:11           0        2.73       0.000
  JK-2                 OUTFALL       0.00  1500.00     0  01:15           0        4.05       0.000
  WSC                  OUTFALL       0.00  1596.64     0  01:33           0        15.9       0.000
  CC-storage           STORAGE       0.00  3081.21     0  01:57           0        23.1      -0.140
  JK-storage           STORAGE       0.00  1417.02     0  02:31           0        8.47      -0.197
  XR-storage           STORAGE     200.00   200.00     0  00:00        5.76        6.36       0.001
  
  
  **********************
  Node Surcharge Summary
  **********************
  
  Surcharging occurs when water rises above the top of the highest conduit.
  ---------------------------------------------------------------------
                                               Max. Height   Min. Depth
                                   Hours       Above Crown    Below Rim
  Node                 Type      Surcharged         Meters       Meters
  ---------------------------------------------------------------------
  HS02004478           JUNCTION        0.81          0.723        0.217
  HS02004479           JUNCTION        0.97          0.895        0.155
  HS02004480           JUNCTION        1.02          0.964        0.136
  HS02004770           JUNCTION        0.91          0.720        0.000
  HS02004777           JUNCTION        0.92          0.780        0.000
  HS02004785           JUNCTION        0.85          0.790        0.000
  HS02004788           JUNCTION        0.83          0.720        0.000
  HS02004792           JUNCTION        0.98          0.900        0.000
  HS02004799           JUNCTION        1.13          1.060        0.000
  HS02004802           JUNCTION        1.02          1.210        0.000
  HS02004807           JUNCTION        1.01          1.220        0.000
  HS02004817           JUNCTION        1.75          1.740        0.000
  HS02004824           JUNCTION        0.83          1.310        0.000
  HS02004830           JUNCTION        0.80          1.330        0.000
  HS02004837           JUNCTION        0.74          1.340        0.000
  HS02004842           JUNCTION        0.92          1.520        0.000
  HS02004848           JUNCTION        0.72          1.370        0.000
  HS02004852           JUNCTION        0.75          1.420        0.000
  HS02004856           JUNCTION        0.73          1.300        0.000
  HS02004862           JUNCTION        0.78          1.300        0.000
  HS02004870           JUNCTION        0.82          1.400        0.000
  HS02004876           JUNCTION        0.94          1.560        0.000
  HS02004881           JUNCTION        0.91          1.371        0.079
  HS02004901           JUNCTION        0.92          0.720        0.000
  WS02004401           JUNCTION        1.99          1.425        0.235
  WS02004402           JUNCTION        2.02          1.329        0.411
  WS02004403           JUNCTION        2.02          1.186        0.844
  WS02004404           JUNCTION        2.19          1.142        1.638
  WS02004405           JUNCTION        2.15          1.036        1.764
  WS02004406           JUNCTION        2.12          1.243        1.207
  WS02004407           JUNCTION        0.06          0.260        2.080
  WS02004409           JUNCTION        1.53          0.689        1.671
  WS02004410           JUNCTION        1.44          0.750        1.790
  WS02004411           JUNCTION        1.26          0.588        1.942
  WS02004412           JUNCTION        1.14          0.241        2.069
  WS02004413           JUNCTION        1.78          0.756        1.444
  WS02006109           JUNCTION        2.57          1.820        0.000
  WS02006110           JUNCTION        2.37          1.846        0.004
  WS02006111           JUNCTION        1.74          1.765        0.105
  WS02006112           JUNCTION        2.44          1.680        0.000
  WS02006113           JUNCTION        1.77          1.609        0.321
  WS02006115           JUNCTION        1.93          1.547        0.703
  WS02006116           JUNCTION        1.95          1.509        0.781
  WS02006228           JUNCTION        2.57          2.200        0.000
  WS02006229           JUNCTION        1.38          1.070        0.000
  WS02006230           JUNCTION        2.22          1.570        0.000
  WS02006231           JUNCTION        2.32          1.530        0.000
  WS02006232           JUNCTION        2.53          1.480        0.000
  WS02006234           JUNCTION        2.29          1.240        0.000
  WS02006235           JUNCTION        2.34          1.290        0.000
  WS02006238           JUNCTION        2.45          1.430        0.000
  WS02006239           JUNCTION        2.38          1.290        0.000
  WS02006240           JUNCTION        2.41          1.390        0.000
  WS02006242           JUNCTION        2.49          0.820        0.000
  WS02006243           JUNCTION        2.41          0.770        0.000
  WS02006245           JUNCTION        2.41          0.850        0.000
  WS02006247           JUNCTION        2.43          0.760        0.000
  WS02006248           JUNCTION        2.40          0.380        0.000
  WS02006249           JUNCTION        2.42          0.390        0.000
  WS02006251           JUNCTION        2.35          1.180        0.000
  WS02006252           JUNCTION        2.81          1.100        0.000
  WS02006253           JUNCTION        2.35          2.288        0.192
  WS02006256           JUNCTION        7.01          2.050        0.000
  WS02006280           JUNCTION        1.16          0.742        0.038
  WS02006284           JUNCTION        1.04          0.756        0.044
  WS02006287           JUNCTION        0.93          0.795        0.095
  YS02001580           JUNCTION        1.80          0.391        0.059
  YS02001583           JUNCTION        1.81          0.362        0.138
  YS02001586           JUNCTION        1.92          0.510        0.000
  YS02001590           JUNCTION        1.99          0.750        0.000
  YS02001593           JUNCTION        1.98          0.801        0.039
  YS02001596           JUNCTION        2.08          1.070        0.000
  YS02001600           JUNCTION        2.17          1.190        0.000
  YS02001601           JUNCTION        2.39          1.440        0.000
  YS02001602           JUNCTION        2.31          1.270        0.000
  YS02001605           JUNCTION        2.28          1.180        0.000
  YS02001607           JUNCTION        1.94          0.680        0.000
  YS02001610           JUNCTION        1.96          0.680        0.000
  YS02001613           JUNCTION        1.93          0.677        0.023
  YS02001616           JUNCTION        1.90          0.610        0.000
  YS02001619           JUNCTION        1.89          0.610        0.000
  YS02001622           JUNCTION        1.88          0.620        0.000
  YS02001625           JUNCTION        2.03          0.780        0.000
  YS02001629           JUNCTION        1.82          0.470        0.000
  YS02001633           JUNCTION        2.05          1.060        0.000
  YS02001641           JUNCTION        1.99          0.978        0.122
  YS02001644           JUNCTION        1.96          0.920        0.000
  YS02001647           JUNCTION        1.66          0.802        0.098
  YS02001649           JUNCTION        1.77          1.050        0.000
  YS02001652           JUNCTION        1.58          1.130        0.000
  YS02001655           JUNCTION        1.38          1.200        0.000
  YS02001658           JUNCTION        1.18          1.300        0.000
  YS02001661           JUNCTION        0.67          1.390        0.000
  YS02001664           JUNCTION        0.39          1.310        0.000
  YS02001745           JUNCTION        0.39          1.350        0.000
  YS02001748           JUNCTION        1.02          1.190        0.000
  YS02001751           JUNCTION        1.25          1.200        0.000
  YS02001754           JUNCTION        1.45          1.150        0.000
  YS02001757           JUNCTION        1.79          1.210        0.000
  YS02001759           JUNCTION        1.71          1.210        0.000
  YS02001762           JUNCTION        1.68          1.150        0.000
  YS02001765           JUNCTION        1.65          1.100        0.000
  YS02001767           JUNCTION        1.62          1.030        0.000
  YS02001770           JUNCTION        1.61          0.920        0.000
  YS02001774           JUNCTION        1.68          1.050        0.000
  YS02001779           JUNCTION        1.48          0.680        0.000
  YS02001783           JUNCTION        1.70          0.860        0.740
  YS02001784           JUNCTION        1.68          0.567        0.923
  YS02001786           JUNCTION        1.54          0.200        1.230
  YS02001882           JUNCTION        1.64          0.830        0.000
  YS02001884           JUNCTION        1.65          0.870        0.000
  YS02001887           JUNCTION        1.69          0.950        0.000
  YS02001890           JUNCTION        1.71          0.760        0.000
  YS02001895           JUNCTION        1.62          0.577        0.173
  YS02001898           JUNCTION        1.61          0.711        0.029
  YS02001901           JUNCTION        1.68          0.741        0.129
  YS02001904           JUNCTION        1.66          0.850        0.000
  YS02001907           JUNCTION        1.88          0.950        0.000
  YS02001910           JUNCTION        1.73          1.100        0.000
  YS02001915           JUNCTION        1.64          1.000        0.000
  YS02001918           JUNCTION        1.53          0.810        0.000
  YS02001920           JUNCTION        1.55          1.052        0.088
  YS02001923           JUNCTION        0.80          0.761        0.059
  YS02001926           JUNCTION        0.86          0.900        0.000
  YS02001929           JUNCTION        0.60          0.780        0.000
  YS02006553           JUNCTION        1.90          1.190        0.000
  YS02006556           JUNCTION        1.82          1.350        0.000
  YS02006558           JUNCTION        1.81          1.400        0.000
  YS02006561           JUNCTION        1.49          0.536        0.614
  YS02163301           JUNCTION        2.03          1.010        0.020
  YS02163601           JUNCTION        2.07          1.079        0.001
  YS02164001           JUNCTION        2.00          0.981        0.119
  YSB1154              JUNCTION        1.34          1.400        0.000
  YSB1171              JUNCTION        1.34          1.100        0.000
  YSB1174              JUNCTION        1.19          1.177        0.073
  YSB6556              JUNCTION        1.08          1.100        0.000
  
  
  *********************
  Node Flooding Summary
  *********************
  
  Flooding refers to all water that overflows a node, whether it ponds or not.
  --------------------------------------------------------------------------
                                                             Total   Maximum
                                 Maximum   Time of Max       Flood    Ponded
                        Hours       Rate    Occurrence      Volume     Depth
  Node                 Flooded       LPS   days hr:min    10^6 ltr    Meters
  --------------------------------------------------------------------------
  HS02004770              0.59   1925.78      0  01:28       1.797     0.000
  HS02004777              0.01    144.52      0  01:23       0.004     0.000
  HS02004785              0.01    390.71      0  01:22       0.003     0.000
  HS02004788              0.01    435.96      0  01:22       0.007     0.000
  HS02004792              0.62   2411.27      0  01:28       2.731     0.000
  HS02004799              0.34    437.26      0  01:25       0.268     0.000
  HS02004802              0.01      0.95      0  01:30       0.000     0.000
  HS02004807              0.27    645.63      0  01:27       0.403     0.000
  HS02004817              0.01      8.48      0  01:24       0.000     0.000
  HS02004824              0.18    230.66      0  01:31       0.109     0.000
  HS02004830              0.01    236.73      0  01:23       0.001     0.000
  HS02004837              0.01     26.20      0  01:24       0.000     0.000
  HS02004842              0.19    285.62      0  01:29       0.125     0.000
  HS02004848              0.01     63.02      0  01:24       0.000     0.000
  HS02004852              0.01    352.00      0  01:24       0.001     0.000
  HS02004856              0.01    397.74      0  01:24       0.001     0.000
  HS02004862              0.17    563.97      0  01:24       0.155     0.000
  HS02004870              0.01   1132.27      0  01:24       0.012     0.000
  HS02004876              0.01     21.01      0  01:30       0.000     0.000
  HS02004901              0.72    754.00      0  01:29       1.241     0.000
  WS02006109              0.71    380.59      0  01:25       0.498     0.000
  WS02006112              0.01    206.93      0  01:22       0.002     0.000
  WS02006228              0.01     26.41      0  01:22       0.000     0.000
  WS02006229              0.01     89.08      0  01:22       0.000     0.000
  WS02006230              1.05    576.32      0  01:25       1.578     0.000
  WS02006231              0.01     69.06      0  01:19       0.000     0.000
  WS02006232              0.26     83.30      0  01:19       0.000     0.000
  WS02006234              1.16    134.89      0  01:19       0.280     0.000
  WS02006235              0.01    193.43      0  01:19       0.000     0.000
  WS02006238              0.01    241.65      0  01:19       0.000     0.000
  WS02006239              0.01    290.92      0  01:19       0.000     0.000
  WS02006240              0.01    293.04      0  01:20       0.000     0.000
  WS02006242              1.27    369.11      0  01:20       0.538     0.000
  WS02006243              0.01    358.01      0  01:20       0.001     0.000
  WS02006245              0.01    212.82      0  01:20       0.001     0.000
  WS02006247              0.01    324.64      0  01:20       0.000     0.000
  WS02006248              1.82    360.51      0  01:24       1.884     0.000
  WS02006249              2.36   1318.66      0  01:30       6.897     0.000
  WS02006251              0.01     15.05      0  01:24       0.000     0.000
  WS02006252              0.94    951.13      0  01:27       1.679     0.000
  WS02006256              1.09    440.06      0  03:45       1.134     0.000
  YS02001586              1.66   4899.69      0  02:37       6.279     0.000
  YS02001590              0.01      8.78      0  03:13       0.000     0.000
  YS02001596              0.01      0.23      0  01:30       0.000     0.000
  YS02001600              0.01     18.83      0  03:13       0.000     0.000
  YS02001601              1.85   7843.04      0  02:37      10.608     0.000
  YS02001602              1.64     62.05      0  01:53       0.353     0.000
  YS02001605              0.01      0.49      0  03:05       0.000     0.000
  YS02001607              0.01      0.26      0  02:52       0.000     0.000
  YS02001610              1.57    957.10      0  02:53       3.875     0.000
  YS02001616              0.24     11.21      0  02:38       0.001     0.000
  YS02001619              0.73   7309.06      0  02:37       5.923     0.000
  YS02001622              0.01      0.78      0  02:38       0.000     0.000
  YS02001625              1.50   1505.28      0  02:30       6.068     0.000
  YS02001629              0.74    686.82      0  02:29       1.187     0.000
  YS02001633              0.35   3884.04      0  02:37       1.914     0.000
  YS02001644              1.06   6973.25      0  02:37       9.216     0.000
  YS02001649              0.35   2389.85      0  02:38       1.875     0.000
  YS02001652              0.01      0.63      0  02:38       0.000     0.000
  YS02001655              0.21    303.23      0  02:32       0.204     0.000
  YS02001658              0.17     70.15      0  02:38       0.031     0.000
  YS02001661              0.01      9.41      0  02:38       0.000     0.000
  YS02001664              0.17   2280.74      0  02:36       0.659     0.000
  YS02001745              0.01      2.62      0  02:36       0.000     0.000
  YS02001748              0.08    710.67      0  02:36       0.107     0.000
  YS02001751              0.01      0.58      0  02:38       0.000     0.000
  YS02001754              0.01      9.43      0  02:38       0.000     0.000
  YS02001757              0.10    146.17      0  02:38       0.030     0.000
  YS02001759              0.18   2145.96      0  02:36       0.631     0.000
  YS02001762              0.06      3.47      0  02:29       0.000     0.000
  YS02001765              0.01      0.15      0  02:38       0.000     0.000
  YS02001767              0.01      0.62      0  02:29       0.000     0.000
  YS02001770              0.56   6027.04      0  02:36       4.545     0.000
  YS02001774              0.01      1.07      0  02:38       0.000     0.000
  YS02001779              0.96    851.49      0  02:24       2.212     0.000
  YS02001882              0.01      4.31      0  02:38       0.000     0.000
  YS02001884              0.01     31.89      0  02:38       0.000     0.000
  YS02001887              0.20   2422.79      0  02:36       0.767     0.000
  YS02001890              0.90   1537.48      0  02:38       2.237     0.000
  YS02001904              0.01      2.43      0  01:30       0.000     0.000
  YS02001907              1.47   4670.59      0  02:38      10.759     0.000
  YS02001910              0.01      0.89      0  01:30       0.000     0.000
  YS02001915              0.52   4889.70      0  02:37       3.490     0.000
  YS02001918              0.28    461.45      0  02:38       0.354     0.000
  YS02001926              0.01      1.06      0  02:29       0.000     0.000
  YS02001929              0.17   1199.10      0  02:37       0.361     0.000
  YS02006553              0.01      0.95      0  01:30       0.000     0.000
  YS02006556              0.01      0.49      0  01:30       0.000     0.000
  YS02006558              0.16   2791.40      0  02:36       0.787     0.000
  YSB1154                 0.01      8.54      0  01:30       0.000     0.000
  YSB1171                 0.48   1372.21      0  01:28       1.304     0.000
  YSB6556                 0.01     16.32      0  01:30       0.000     0.000
  
  
  **********************
  Storage Volume Summary
  **********************
  
  --------------------------------------------------------------------------------------------------
                         Average     Avg  Evap Exfil       Maximum     Max    Time of Max    Maximum
                          Volume    Pcnt  Pcnt  Pcnt        Volume    Pcnt     Occurrence    Outflow
  Storage Unit           1000 m3    Full  Loss  Loss       1000 m3    Full    days hr:min        LPS
  --------------------------------------------------------------------------------------------------
  CC-storage               2.530      39     0     0         5.432      85       0  02:55    2549.00
  JK-storage               0.077      26     0     0         0.213      73       0  02:25    2300.00
  XR-storage               0.933      65     0     0         1.111      77       0  08:00     380.00
  
  
  ***********************
  Outfall Loading Summary
  ***********************
  
  -----------------------------------------------------------
                         Flow       Avg       Max       Total
                         Freq      Flow      Flow      Volume
  Outfall Node           Pcnt       LPS       LPS    10^6 ltr
  -----------------------------------------------------------
  CC-1                  48.35    915.49   1024.50       6.666
  CC-2                  59.62   1003.03   1024.50      10.002
  JK-1                  10.89   1285.04   1500.00       2.731
  JK-2                  12.72   1493.47   1500.00       4.054
  WSC                   99.95    695.98   1596.64      15.908
  -----------------------------------------------------------
  System                46.31   5393.02   1596.64      39.361
  
  
  ********************
  Link Flow Summary
  ********************
  
  -----------------------------------------------------------------------------
                                 Maximum  Time of Max   Maximum    Max/    Max/
                                  |Flow|   Occurrence   |Veloc|    Full    Full
  Link                 Type          LPS  days hr:min     m/sec    Flow   Depth
  -----------------------------------------------------------------------------
  1                    CONDUIT   1596.64     0  01:33      3.75    0.56    0.53
  HS02004478WS02006287 CONDUIT   2339.40     0  01:30      2.70    0.65    1.00
  HS02004479HS02004480 CONDUIT    633.16     0  01:23      0.90    0.61    1.00
  HS02004480HS02004478 CONDUIT   2251.40     0  01:23      3.22    9.48    1.00
  HS02004770HS02004777 CONDUIT    992.81     0  01:22      1.42    1.82    1.00
  HS02004777HS02004785 CONDUIT    992.75     0  01:22      1.52    1.22    1.00
  HS02004785HS02004788 CONDUIT    621.46     0  01:22      1.33    4.69    1.00
  HS02004788HS02004792 CONDUIT    912.51     0  01:27      1.43    0.60    1.00
  HS02004792HS02004799 CONDUIT   1504.14     0  02:06      2.15    0.92    1.00
  HS02004799HS02004480 CONDUIT   1649.38     0  01:23      2.36    2.08    1.00
  HS02004802HS02004478 CONDUIT   1251.72     0  01:30      1.79    1.10    1.00
  HS02004807HS02004802 CONDUIT   1258.76     0  01:30      1.80    2.40    1.00
  HS02004817HS02004807 CONDUIT   1197.05     0  01:34      1.71    0.71    1.00
  HS02004817HS02004824 CONDUIT   1196.44     0  01:31      1.71    0.54    1.00
  HS02004824HS02004830 CONDUIT    884.84     0  01:23      1.26    1.16    1.00
  HS02004830HS02004837 CONDUIT    920.44     0  01:23      1.43    0.92    1.00
  HS02004837HS02004842 CONDUIT   1156.20     0  01:23      1.65    0.69    1.00
  HS02004842HS02004848 CONDUIT   1159.35     0  01:23      1.85    0.68    1.00
  HS02004848HS02004852 CONDUIT   1477.58     0  01:24      2.22    1.67    1.00
  HS02004852HS02004856 CONDUIT   1407.55     0  01:24      2.06    1.61    1.00
  HS02004856HS02004862 CONDUIT   1592.99     0  01:24      2.34    1.59    1.00
  HS02004862HS02004870 CONDUIT   1385.74     0  01:24      2.05    1.50    1.00
  HS02004870HS02004876 CONDUIT   1256.51     0  01:35      1.80    0.83    1.00
  HS02004876HS02004881 CONDUIT   1529.03     0  01:30      2.18   16.26    1.00
  HS02004881HS02006253 CONDUIT   1685.35     0  01:27      2.41    0.33    1.00
  HS02004901HS02004770 CONDUIT    265.79     0  01:57      0.38    1.00    1.00
  WS02001211WS02001212 CONDUIT    297.46     0  01:29      0.54    0.23    0.76
  WS02001212WS02001213 CONDUIT    392.96     0  01:30      1.04    0.61    0.67
  WS02001213WS02003059 CONDUIT    327.37     0  01:30      0.47    0.54    0.95
  WS02003059WS02003060 CONDUIT    427.03     0  01:25      0.76    0.28    0.85
  WS02003060WS02003069 CONDUIT   1613.31     0  01:31      2.31    0.63    0.63
  WS02003066WSF200     CONDUIT   1429.30     0  01:26      3.71    0.24    0.40
  WS02003067WS02003066 CONDUIT   1418.10     0  01:26      2.25    0.45    0.58
  WS02003069WS02003072 CONDUIT   1598.64     0  01:31      1.93    0.77    0.69
  WS02003072WS02003073 CONDUIT   1599.15     0  01:32      2.10    3.45    0.64
  WS02004138WS02004139 CONDUIT    190.94     0  00:29      2.16    0.04    0.45
  WS02004139WS02001211 CONDUIT    335.98     0  01:28      0.54    0.42    0.65
  WS02004401WS02004402 CONDUIT   1394.72     0  01:25      1.78    1.67    1.00
  WS02004402WS02004403 CONDUIT   1394.01     0  01:25      1.77    2.00    1.00
  WS02004403WS02004404 CONDUIT   1392.50     0  01:25      1.77    1.01    1.00
  WS02004404WS02004405 CONDUIT   1391.42     0  01:25      1.77   13.63    1.00
  WS02004405WS02004406 CONDUIT   1393.25     0  01:25      1.77    2.75    1.00
  WS02004406WS02004407 CONDUIT   1393.79     0  01:25      2.11    0.62    1.00
  WS02004407WS02004409 CONDUIT   1368.83     0  01:26      2.33    0.48    1.00
  WS02004409WS02004410 CONDUIT   1374.17     0  01:30      1.81    1.78    1.00
  WS02004410WS02004411 CONDUIT   1370.78     0  01:25      1.79    1.87    1.00
  WS02004411WS02004412 CONDUIT   1372.02     0  01:25      1.83    1.95    1.00
  WS02004412WS02004413 CONDUIT   1373.55     0  01:25      1.75    0.92    1.00
  WS02004413WS02003067 CONDUIT   1374.98     0  01:25      2.10    0.59    0.78
  WS02006109WS02006110 CONDUIT   1252.87     0  01:22      2.49    2.41    1.00
  WS02006110WS02006113 CONDUIT   1252.23     0  01:22      2.49    1.14    1.00
  WS02006111WS02006112 CONDUIT   1134.68     0  01:22      2.29    0.54    1.00
  WS02006112WS02006115 CONDUIT   1394.66     0  01:25      1.78    0.82    1.00
  WS02006113WS02006111 CONDUIT   1249.38     0  01:22      2.77    1.50    1.00
  WS02006115WS02006116 CONDUIT   1394.43     0  01:25      1.78    1.79    1.00
  WS02006116WS02004401 CONDUIT   1394.10     0  01:25      1.78    1.92    1.00
  WS02006228WS02006109 CONDUIT   1290.66     0  01:25      2.57    5.64    1.00
  WS02006229WS02006228 CONDUIT   1297.15     0  01:30      2.58    4.30    1.00
  WS02006230WS02006229 CONDUIT   1018.78     0  01:25      2.65   22.67    1.00
  WS02006231WS02006230 CONDUIT    533.95     0  03:38      1.39    8.10    1.00
  WS02006232WS02006231 CONDUIT    535.60     0  03:38      1.39    1.12    1.00
  WS02006234WS02006232 CONDUIT    532.60     0  03:38      1.42    1.08    1.00
  WS02006235WS02006234 CONDUIT    526.86     0  03:36      1.37    5.56    1.00
  WS02006238WS02006235 CONDUIT    433.96     0  03:39      1.45    0.97    1.00
  WS02006239WS02006238 CONDUIT    433.48     0  03:39      1.13    1.39    1.00
  WS02006240WS02006239 CONDUIT    432.26     0  03:39      1.16    1.36    1.00
  WS02006242WS02006240 CONDUIT    432.16     0  03:39      1.12    1.72    1.00
  WS02006243WS02006242 CONDUIT    432.49     0  03:39      1.26    0.92    1.00
  WS02006245WS02006243 CONDUIT    433.86     0  03:39      1.36    1.28    1.00
  WS02006247WS02006245 CONDUIT    436.18     0  01:20      1.39    3.46    1.00
  WS02006248WS02006247 CONDUIT    490.10     0  01:20      1.32    1.07    1.00
  WS02006249WS02006248 CONDUIT    507.26     0  01:20      1.51    2.78    1.00
  WS02006251WS02006249 CONDUIT   1386.13     0  01:27      3.60    4.00    1.00
  WS02006252WS02006251 CONDUIT    610.02     0  01:15     27.43    2.24    1.00
  WS02006253WS02006251 CONDUIT   1737.30     0  01:27      4.51    5.21    1.00
  WS02006256WS02006235 CONDUIT    288.93     0  00:00      4.23    3.06    1.00
  WS02006280WS02006229 CONDUIT   2312.76     0  01:30      4.50    0.49    1.00
  WS02006284WS02006280 CONDUIT   2312.25     0  01:30      3.03    0.97    1.00
  WS02006287WS02006284 CONDUIT   2315.29     0  01:30      2.95    1.07    1.00
  WSF200WS02003060     CONDUIT   1421.99     0  01:24      3.22    0.32    0.53
  YS02001580YS02001583 CONDUIT     68.55     0  01:22      0.52    0.27    1.00
  YS02001583YS02001586 CONDUIT    103.25     0  01:22      0.45    0.16    1.00
  YS02001586YS02001590 CONDUIT    380.70     0  03:13      1.35    0.67    1.00
  YS02001590YS02001593 CONDUIT    373.40     0  03:13      1.32    2.34    1.00
  YS02001593YS02001596 CONDUIT    354.80     0  03:13      1.90    0.56    1.00
  YS02001596YS02001600 CONDUIT    346.59     0  03:13      1.39    0.67    1.00
  YS02001600YS02001601 CONDUIT    321.11     0  03:13      1.14    0.55    1.00
  YS02001601YS02001602 CONDUIT    511.16     0  01:21      1.81    1.85    1.00
  YS02001602YS02001605 CONDUIT    510.84     0  01:21      1.81   10.81    1.00
  YS02001605YS02001607 CONDUIT    510.81     0  01:21      1.81    2.80    1.00
  YS02001607YS02001610 CONDUIT    509.46     0  01:21      0.69    0.48    1.00
  YS02001610YS02001613 CONDUIT    620.81     0  02:52      0.79    0.72    1.00
  YS02001613YS02001616 CONDUIT    621.29     0  02:52      0.79    0.53    1.00
  YS02001616YS02001619 CONDUIT    630.41     0  02:38      0.80    1.09    1.00
  YS02001619YS02001622 CONDUIT   1054.00     0  02:29      1.53    1.55    1.00
  YS02001622YS02001625 CONDUIT   1053.74     0  02:30      1.34    0.56    1.00
  YS02001625YS02001629 CONDUIT    926.69     0  01:31      1.18    0.44    1.00
  YS02001629YS02163301 CONDUIT   1138.97     0  02:29      1.45    1.40    1.00
  YS02001633YS02163601 CONDUIT   1329.06     0  01:33      1.69    1.40    1.00
  YS02001641YS02001644 CONDUIT   1327.74     0  01:33      1.69    4.29    1.00
  YS02001644YS02001647 CONDUIT   1684.78     0  01:33      2.17    0.99    1.00
  YS02001647YS02001649 CONDUIT   1679.69     0  01:33      2.31    0.89    1.00
  YS02001649YS02001757 CONDUIT   1958.69     0  01:33      2.51    1.19    1.00
  YS02001652YS02001649 CONDUIT   2429.27     0  02:32      3.09    1.20    1.00
  YS02001655YS02001652 CONDUIT   2429.14     0  02:30      3.09    1.18    1.00
  YS02001658YS02001655 CONDUIT   2731.29     0  02:37      3.48    1.16    1.00
  YS02001661YS02001658 CONDUIT   2795.01     0  02:38      3.56    1.10    1.00
  YS02001664YS02001661 CONDUIT   2805.26     0  02:38      3.57    0.88    1.00
  YS02001745YS02001748 CONDUIT   3064.31     0  02:36      3.90    1.18    1.00
  YS02001748YS02001751 CONDUIT   2355.38     0  02:38      3.00    1.19    1.00
  YS02001751YS02001754 CONDUIT   2359.86     0  02:38      3.00    1.14    1.00
  YS02001754YS02001757 CONDUIT   2353.92     0  02:36      3.00    0.95    1.00
  YS02001757CaochengTiaoxuchi CONDUIT   3081.21     0  01:57      4.16    1.33    1.00
  YS02001759YS02001757 CONDUIT   1579.95     0  02:39      2.01    1.12    1.00
  YS02001762YS02001759 CONDUIT    730.85     0  01:57      0.93    0.84    1.00
  YS02001765YS02001762 CONDUIT    730.69     0  01:57      0.93    0.69    1.00
  YS02001767YS02001765 CONDUIT    730.54     0  01:57      0.93    0.92    1.00
  YS02001770YS02001767 CONDUIT    730.11     0  01:57      0.93    2.89    1.00
  YS02001774YS02001770 CONDUIT    852.17     0  02:30      1.09    0.54    1.00
  YS02001779YS02001774 CONDUIT    851.79     0  02:24      1.08    0.43    1.00
  YS02001783YS02001784 CONDUIT   1321.65     0  02:38      2.63    1.82    1.00
  YS02001784YS02001785 CONDUIT   1325.37     0  02:38      2.64    3.08    1.00
  YS02001786YS02001788 CONDUIT   1327.88     0  02:38      2.75    2.56    0.93
  YS02001788YS02001790 CONDUIT   1339.74     0  02:31      2.90    0.99    0.92
  YS02001790YS02001791 CONDUIT   1418.39     0  02:30      3.56    1.54    0.76
  YS02001791YS02001793 CONDUIT   1438.92     0  02:31      6.98    0.62    0.51
  YS02001793JiankangQianchi CONDUIT   1417.02     0  02:31      2.74    0.11    0.69
  YS02001882YS02001884 CONDUIT     39.31     0  01:21      0.31    0.05    1.00
  YS02001884YS02001887 CONDUIT     75.98     0  01:14      0.25    0.10    1.00
  YS02001887YS02001890 CONDUIT   2052.03     0  02:38      2.61    3.51    1.00
  YS02001890YS02001895 CONDUIT    527.60     0  02:38      0.67    0.25    1.00
  YS02001895YS02001898 CONDUIT    518.94     0  02:16      0.66    0.90    1.00
  YS02001898YS02001901 CONDUIT    530.45     0  02:38      0.68    0.34    1.00
  YS02001901YS02001904 CONDUIT    521.61     0  02:26      0.66    0.81    1.00
  YS02001904YS02001907 CONDUIT    521.72     0  02:26      0.66    0.18    1.00
  YS02001907YS02006553 CONDUIT   2161.27     0  02:38      2.40    2.54    1.00
  YS02001910YS02001907 CONDUIT   1993.05     0  02:23      2.54    1.12    1.00
  YS02001915YS02001910 CONDUIT   1993.21     0  02:29      2.54    0.99    1.00
  YS02001918YS02001915 CONDUIT   1221.69     0  02:43      1.56    0.67    1.00
  YS02001920YS02001918 CONDUIT   1683.21     0  02:38      2.14    1.63    1.00
  YS02001923YS02001920 CONDUIT   1679.21     0  02:38      2.14    0.75    1.00
  YS02001926YS02001923 CONDUIT   1679.28     0  02:38      2.14    2.40    1.00
  YS02001929YS02001926 CONDUIT   1684.44     0  02:38      2.14    0.80    1.00
  YS02006553YS02006556 CONDUIT   2160.65     0  02:37      2.75    1.85    1.00
  YS02006556YS02006558 CONDUIT   2162.10     0  02:38      2.75    1.71    1.00
  YS02006558YS02006561 CONDUIT   1322.39     0  02:38      4.68    2.92    1.00
  YS02006561YS02001783 CONDUIT   1321.63     0  02:38      2.63    0.68    1.00
  YS02163301YS02001633 CONDUIT   1138.94     0  02:30      1.45    1.07    1.00
  YS02163601YS02164001 CONDUIT   1328.26     0  01:33      1.69    1.18    1.00
  YS02164001YS02001641 CONDUIT   1327.38     0  01:33      1.69    1.81    1.00
  YSB1154YSB6556       CONDUIT    616.33     0  01:28      1.60    1.11    1.00
  YSB1171HS02004479    CONDUIT    631.94     0  01:23      1.26    0.42    1.00
  YSB1174YSB1171       CONDUIT    550.05     0  01:26      1.43    0.84    1.00
  YSB6556YSB1171       CONDUIT    616.64     0  01:28      1.60    0.63    1.00
  CC-R1                PUMP      1024.50     0  00:01              1.50
  CC-R2                PUMP      1024.50     0  00:01              1.50
  CC-S1                PUMP       300.00     0  01:07              1.50
  CC-S2                PUMP       300.00     0  00:01              1.50
  JK-R1                PUMP      1500.00     0  02:11              1.50
  JK-R2                PUMP      1500.00     0  01:15              1.50
  JK-S                 PUMP       450.00     0  00:11              1.50
  XR-1                 PUMP        95.00     0  00:00              1.00
  XR-2                 PUMP        95.00     0  00:00              1.00
  XR-3                 PUMP        95.00     0  00:00              1.00
  XR-4                 PUMP        95.00     0  00:00              1.00
  
  
  ***************************
  Flow Classification Summary
  ***************************
  
  -------------------------------------------------------------------------------------
                      Adjusted    ---------- Fraction of Time in Flow Class ---------- 
                       /Actual         Up    Down  Sub   Sup   Up    Down  Norm  Inlet 
  Conduit               Length    Dry  Dry   Dry   Crit  Crit  Crit  Crit  Ltd   Ctrl  
  -------------------------------------------------------------------------------------
  1                       1.00   0.00  0.00  0.00  0.00  1.00  0.00  0.00  0.41  0.00
  HS02004478WS02006287    1.00   0.12  0.00  0.00  0.63  0.25  0.00  0.00  0.58  0.00
  HS02004479HS02004480    1.00   0.07  0.00  0.00  0.93  0.00  0.00  0.00  0.10  0.00
  HS02004480HS02004478    1.00   0.11  0.00  0.00  0.53  0.00  0.00  0.36  0.00  0.00
  HS02004770HS02004777    1.00   0.00  0.11  0.00  0.89  0.00  0.00  0.00  0.02  0.00
  HS02004777HS02004785    1.00   0.00  0.00  0.00  1.00  0.00  0.00  0.00  0.10  0.00
  HS02004785HS02004788    1.00   0.00  0.00  0.00  1.00  0.00  0.00  0.00  0.00  0.00
  HS02004788HS02004792    1.00   0.00  0.00  0.00  0.96  0.04  0.00  0.00  0.85  0.00
  HS02004792HS02004799    1.00   0.00  0.00  0.00  0.95  0.05  0.00  0.00  0.79  0.00
  HS02004799HS02004480    1.00   0.01  0.07  0.00  0.88  0.00  0.05  0.00  0.00  0.00
  HS02004802HS02004478    1.00   0.11  0.00  0.00  0.89  0.00  0.00  0.00  0.02  0.00
  HS02004807HS02004802    1.00   0.11  0.00  0.00  0.88  0.00  0.00  0.01  0.00  0.00
  HS02004817HS02004807    1.00   0.00  0.11  0.00  0.89  0.00  0.00  0.00  0.01  0.00
  HS02004817HS02004824    1.00   0.00  0.00  0.00  1.00  0.00  0.00  0.00  0.77  0.00
  HS02004824HS02004830    1.00   0.00  0.00  0.00  1.00  0.00  0.00  0.00  0.00  0.00
  HS02004830HS02004837    1.00   0.00  0.00  0.00  0.99  0.01  0.00  0.00  0.82  0.00
  HS02004837HS02004842    1.00   0.00  0.00  0.00  0.98  0.02  0.00  0.00  0.11  0.00
  HS02004842HS02004848    1.00   0.00  0.11  0.00  0.89  0.00  0.00  0.00  0.54  0.00
  HS02004848HS02004852    1.00   0.11  0.00  0.00  0.89  0.00  0.00  0.00  0.68  0.00
  HS02004852HS02004856    1.00   0.11  0.00  0.00  0.89  0.00  0.00  0.00  0.63  0.00
  HS02004856HS02004862    1.00   0.00  0.12  0.00  0.88  0.00  0.00  0.00  0.70  0.00
  HS02004862HS02004870    1.00   0.00  0.00  0.00  1.00  0.00  0.00  0.00  0.02  0.00
  HS02004870HS02004876    1.00   0.02  0.00  0.00  0.98  0.01  0.00  0.00  0.81  0.00
  HS02004876HS02004881    1.00   0.06  0.00  0.00  0.75  0.19  0.00  0.00  0.00  0.00
  HS02004881HS02006253    1.00   0.03  0.05  0.00  0.53  0.01  0.00  0.38  0.19  0.00
  HS02004901HS02004770    1.00   0.11  0.00  0.00  0.89  0.00  0.00  0.00  0.00  0.00
  WS02001211WS02001212    1.00   0.00  0.06  0.00  0.94  0.00  0.00  0.00  0.00  0.00
  WS02001212WS02001213    1.00   0.06  0.00  0.00  0.54  0.00  0.40  0.00  0.00  0.00
  WS02001213WS02003059    1.00   0.00  0.03  0.00  0.97  0.00  0.00  0.00  0.00  0.00
  WS02003059WS02003060    1.00   0.00  0.00  0.00  0.99  0.01  0.00  0.00  0.03  0.00
  WS02003060WS02003069    1.00   0.00  0.00  0.00  0.97  0.03  0.00  0.00  0.44  0.00
  WS02003066WSF200        1.00   0.11  0.00  0.00  0.00  0.89  0.00  0.00  0.57  0.00
  WS02003067WS02003066    1.00   0.10  0.01  0.00  0.89  0.00  0.00  0.00  0.00  0.00
  WS02003069WS02003072    1.00   0.00  0.00  0.00  0.98  0.02  0.00  0.00  0.63  0.00
  WS02003072WS02003073    1.00   0.00  0.00  0.00  0.00  0.00  0.00  1.00  0.00  0.00
  WS02004138WS02004139    1.00   0.00  0.00  0.00  0.93  0.01  0.00  0.06  0.98  0.00
  WS02004139WS02001211    1.00   0.00  0.01  0.00  0.98  0.00  0.01  0.00  0.00  0.00
  WS02004401WS02004402    1.00   0.07  0.00  0.00  0.93  0.00  0.00  0.00  0.00  0.00
  WS02004402WS02004403    1.00   0.07  0.00  0.00  0.93  0.00  0.00  0.00  0.00  0.00
  WS02004403WS02004404    1.00   0.00  0.07  0.00  0.93  0.00  0.00  0.00  0.00  0.00
  WS02004404WS02004405    1.00   0.00  0.00  0.00  1.00  0.00  0.00  0.00  0.00  0.00
  WS02004405WS02004406    1.00   0.00  0.00  0.00  1.00  0.00  0.00  0.00  0.00  0.00
  WS02004406WS02004407    1.00   0.00  0.08  0.00  0.92  0.00  0.00  0.00  0.00  0.00
  WS02004407WS02004409    1.00   0.08  0.00  0.00  0.91  0.01  0.00  0.00  0.75  0.00
  WS02004409WS02004410    1.00   0.08  0.00  0.00  0.92  0.00  0.00  0.00  0.03  0.00
  WS02004410WS02004411    1.00   0.08  0.00  0.00  0.92  0.00  0.00  0.00  0.01  0.00
  WS02004411WS02004412    1.00   0.08  0.00  0.00  0.92  0.00  0.00  0.00  0.00  0.00
  WS02004412WS02004413    1.00   0.08  0.00  0.00  0.92  0.00  0.00  0.00  0.01  0.00
  WS02004413WS02003067    1.00   0.08  0.02  0.00  0.00  0.00  0.90  0.00  0.00  0.00
  WS02006109WS02006110    1.00   0.00  0.04  0.00  0.94  0.00  0.02  0.00  0.00  0.00
  WS02006110WS02006113    1.00   0.04  0.02  0.00  0.94  0.00  0.00  0.00  0.00  0.00
  WS02006111WS02006112    1.00   0.06  0.00  0.00  0.94  0.00  0.00  0.00  0.71  0.00
  WS02006112WS02006115    1.00   0.06  0.00  0.00  0.93  0.00  0.00  0.00  0.00  0.00
  WS02006113WS02006111    1.00   0.06  0.00  0.00  0.33  0.61  0.00  0.00  0.05  0.00
  WS02006115WS02006116    1.00   0.06  0.00  0.00  0.93  0.00  0.00  0.01  0.00  0.00
  WS02006116WS02004401    1.00   0.06  0.00  0.00  0.94  0.00  0.00  0.00  0.00  0.00
  WS02006228WS02006109    1.00   0.00  0.00  0.00  1.00  0.00  0.00  0.00  0.00  0.00
  WS02006229WS02006228    1.00   0.00  0.00  0.00  0.96  0.00  0.00  0.04  0.00  0.00
  WS02006230WS02006229    1.00   0.00  0.00  0.00  0.94  0.00  0.00  0.06  0.03  0.00
  WS02006231WS02006230    1.00   0.00  0.00  0.00  0.55  0.00  0.45  0.00  0.00  0.00
  WS02006232WS02006231    1.00   0.00  0.00  0.00  0.98  0.00  0.02  0.00  0.00  0.00
  WS02006234WS02006232    1.00   0.00  0.00  0.00  0.99  0.01  0.00  0.00  0.03  0.00
  WS02006235WS02006234    1.00   0.00  0.00  0.00  0.89  0.00  0.11  0.00  0.00  0.00
  WS02006238WS02006235    1.00   0.00  0.00  0.00  1.00  0.00  0.00  0.00  0.00  0.00
  WS02006239WS02006238    1.00   0.00  0.00  0.00  1.00  0.00  0.00  0.00  0.14  0.00
  WS02006240WS02006239    1.00   0.00  0.00  0.00  0.79  0.00  0.00  0.20  0.01  0.00
  WS02006242WS02006240    1.00   0.01  0.00  0.00  0.98  0.00  0.01  0.00  0.00  0.00
  WS02006243WS02006242    1.00   0.00  0.00  0.00  0.97  0.00  0.00  0.02  0.60  0.00
  WS02006245WS02006243    1.00   0.00  0.00  0.00  0.91  0.00  0.00  0.09  0.00  0.00
  WS02006247WS02006245    1.00   0.00  0.00  0.00  0.97  0.00  0.00  0.03  0.00  0.00
  WS02006248WS02006247    1.00   0.00  0.00  0.00  0.99  0.00  0.00  0.01  0.49  0.00
  WS02006249WS02006248    1.00   0.00  0.00  0.00  0.70  0.00  0.30  0.00  0.00  0.00
  WS02006251WS02006249    1.00   0.00  0.00  0.00  0.99  0.01  0.00  0.00  0.53  0.00
  WS02006252WS02006251    1.00   0.22  0.14  0.00  0.42  0.00  0.22  0.00  0.00  0.00
  WS02006253WS02006251    1.00   0.00  0.00  0.00  0.98  0.00  0.01  0.00  0.01  0.00
  WS02006256WS02006235    1.00   0.00  0.00  0.00  0.99  0.01  0.00  0.00  0.00  0.00
  WS02006280WS02006229    1.00   0.11  0.00  0.00  0.29  0.05  0.00  0.55  0.01  0.00
[...]
  WSF200WS02003060        1.00   0.00  0.11  0.00  0.38  0.51  0.00  0.00  0.54  0.00
  YS02001580YS02001583    1.00   0.15  0.31  0.00  0.54  0.00  0.00  0.00  0.58  0.00
  YS02001583YS02001586    1.00   0.24  0.16  0.00  0.60  0.00  0.01  0.00  0.59  0.00
  YS02001586YS02001590    1.00   0.11  0.00  0.00  0.71  0.02  0.00  0.16  0.31  0.00
  YS02001590YS02001593    1.00   0.11  0.00  0.00  0.38  0.00  0.51  0.00  0.00  0.00
  YS02001593YS02001596    1.00   0.11  0.00  0.00  0.39  0.01  0.00  0.49  0.01  0.00
  YS02001596YS02001600    1.00   0.11  0.00  0.00  0.45  0.02  0.00  0.43  0.02  0.00
  YS02001600YS02001601    1.00   0.11  0.00  0.00  0.89  0.00  0.00  0.00  0.52  0.00
  YS02001601YS02001602    1.00   0.11  0.00  0.00  0.89  0.00  0.00  0.00  0.00  0.00
  YS02001602YS02001605    1.00   0.11  0.00  0.00  0.89  0.00  0.00  0.00  0.00  0.00
  YS02001605YS02001607    1.00   0.11  0.00  0.00  0.89  0.00  0.00  0.00  0.00  0.00
  YS02001607YS02001610    1.00   0.11  0.00  0.00  0.89  0.00  0.00  0.00  0.00  0.00
  YS02001610YS02001613    1.00   0.11  0.00  0.00  0.89  0.00  0.00  0.00  0.00  0.00
  YS02001613YS02001616    1.00   0.11  0.00  0.00  0.89  0.00  0.00  0.00  0.00  0.00
  YS02001616YS02001619    1.00   0.11  0.00  0.00  0.89  0.00  0.00  0.00  0.00  0.00
  YS02001619YS02001622    1.00   0.11  0.00  0.00  0.89  0.00  0.00  0.00  0.23  0.00
  YS02001622YS02001625    1.00   0.11  0.00  0.00  0.89  0.00  0.00  0.00  0.01  0.00
  YS02001625YS02001629    1.00   0.11  0.01  0.00  0.41  0.00  0.48  0.00  0.00  0.00
  YS02001629YS02163301    1.00   0.11  0.00  0.00  0.89  0.00  0.00  0.00  0.00  0.00
  YS02001633YS02163601    1.00   0.00  0.02  0.00  0.98  0.00  0.00  0.00  0.13  0.00
  YS02001641YS02001644    1.00   0.00  0.02  0.00  0.98  0.00  0.00  0.00  0.00  0.00
  YS02001644YS02001647    1.00   0.00  0.11  0.00  0.89  0.00  0.00  0.00  0.00  0.00
  YS02001647YS02001649    1.00   0.00  0.11  0.00  0.57  0.31  0.00  0.00  0.50  0.00
  YS02001649YS02001757    1.00   0.00  0.00  0.00  0.68  0.32  0.00  0.00  0.40  0.00
  YS02001652YS02001649    1.00   0.00  0.00  0.00  0.99  0.01  0.00  0.00  0.64  0.00
  YS02001655YS02001652    1.00   0.00  0.00  0.00  0.46  0.02  0.00  0.52  0.04  0.00
  YS02001658YS02001655    1.00   0.00  0.11  0.00  0.67  0.22  0.00  0.00  0.60  0.00
  YS02001661YS02001658    1.00   0.11  0.00  0.00  0.51  0.38  0.00  0.00  0.61  0.00
  YS02001664YS02001661    1.00   0.11  0.00  0.00  0.77  0.12  0.00  0.00  0.75  0.00
  YS02001745YS02001748    1.00   0.00  0.00  0.00  0.30  0.00  0.00  0.70  0.04  0.00
  YS02001748YS02001751    1.00   0.00  0.00  0.00  0.87  0.13  0.00  0.00  0.70  0.00
  YS02001751YS02001754    1.00   0.00  0.00  0.00  0.39  0.02  0.00  0.59  0.02  0.00
  YS02001754YS02001757    1.00   0.00  0.00  0.00  1.00  0.00  0.00  0.00  0.71  0.00
  YS02001757CaochengTiaoxuchi    1.00   0.00  0.00  0.00  0.91  0.09  0.00  0.00  0.71  0.00
  YS02001759YS02001757    1.00   0.00  0.00  0.00  1.00  0.00  0.00  0.00  0.53  0.00
  YS02001762YS02001759    1.00   0.00  0.00  0.00  1.00  0.00  0.00  0.00  0.03  0.00
  YS02001765YS02001762    1.00   0.00  0.00  0.00  1.00  0.00  0.00  0.00  0.65  0.00
  YS02001767YS02001765    1.00   0.00  0.00  0.00  1.00  0.00  0.00  0.00  0.00  0.00
  YS02001770YS02001767    1.00   0.00  0.00  0.00  1.00  0.00  0.00  0.00  0.00  0.00
  YS02001774YS02001770    1.00   0.00  0.11  0.00  0.82  0.00  0.07  0.00  0.00  0.00
  YS02001779YS02001774    1.00   0.00  0.00  0.00  1.00  0.00  0.00  0.00  0.69  0.00
  YS02001783YS02001784    1.00   0.00  0.12  0.00  0.88  0.00  0.00  0.00  0.52  0.00
  YS02001784YS02001785    1.00   0.00  0.00  0.00  1.00  0.00  0.00  0.00  0.13  0.00
  YS02001786YS02001788    1.00   0.00  0.00  0.00  0.72  0.28  0.00  0.00  0.00  0.00
  YS02001788YS02001790    1.00   0.00  0.00  0.00  0.25  0.75  0.00  0.00  0.73  0.00
  YS02001790YS02001791    1.00   0.00  0.00  0.00  0.05  0.95  0.00  0.00  0.10  0.00
  YS02001791YS02001793    1.00   0.00  0.00  0.00  0.00  1.00  0.00  0.00  0.03  0.00
  YS02001793JiankangQianchi    1.00   0.00  0.00  0.00  0.81  0.19  0.00  0.00  0.95  0.00
  YS02001882YS02001884    1.00   0.11  0.00  0.00  0.89  0.00  0.00  0.00  0.00  0.00
  YS02001884YS02001887    1.00   0.08  0.02  0.00  0.90  0.00  0.00  0.00  0.00  0.00
  YS02001887YS02001890    1.00   0.00  0.00  0.00  0.93  0.00  0.06  0.00  0.00  0.00
  YS02001890YS02001895    1.00   0.01  0.11  0.00  0.89  0.00  0.00  0.00  0.00  0.00
  YS02001895YS02001898    1.00   0.11  0.00  0.00  0.88  0.00  0.00  0.00  0.00  0.00
  YS02001898YS02001901    1.00   0.11  0.00  0.00  0.89  0.00  0.00  0.00  0.00  0.00
  YS02001901YS02001904    1.00   0.11  0.00  0.00  0.89  0.00  0.00  0.00  0.00  0.00
  YS02001904YS02001907    1.00   0.00  0.11  0.00  0.89  0.00  0.00  0.00  0.00  0.00
  YS02001907YS02006553    1.00   0.00  0.06  0.00  0.94  0.00  0.00  0.00  0.00  0.00
  YS02001910YS02001907    1.00   0.00  0.00  0.00  0.93  0.00  0.00  0.06  0.11  0.00
  YS02001915YS02001910    1.00   0.00  0.00  0.00  0.98  0.02  0.00  0.00  0.11  0.00
  YS02001918YS02001915    1.00   0.00  0.02  0.00  0.95  0.03  0.00  0.00  0.63  0.00
  YS02001920YS02001918    1.00   0.00  0.02  0.00  0.98  0.00  0.00  0.00  0.00  0.00
  YS02001923YS02001920    1.00   0.00  0.00  0.00  1.00  0.00  0.00  0.00  0.78  0.00
  YS02001926YS02001923    1.00   0.00  0.09  0.00  0.27  0.00  0.64  0.00  0.00  0.00
  YS02001929YS02001926    1.00   0.00  0.11  0.00  0.89  0.00  0.00  0.00  0.68  0.00
  YS02006553YS02006556    1.00   0.05  0.00  0.00  0.95  0.00  0.00  0.00  0.03  0.00
  YS02006556YS02006558    1.00   0.00  0.01  0.00  0.99  0.00  0.00  0.00  0.00  0.00
  YS02006558YS02006561    1.00   0.12  0.00  0.00  0.26  0.62  0.00  0.00  0.13  0.00
  YS02006561YS02001783    1.00   0.12  0.00  0.00  0.32  0.56  0.00  0.00  0.60  0.00
  YS02163301YS02001633    1.00   0.00  0.11  0.00  0.89  0.00  0.00  0.00  0.00  0.00
  YS02163601YS02164001    1.00   0.00  0.09  0.00  0.91  0.00  0.00  0.00  0.00  0.00
  YS02164001YS02001641    1.00   0.03  0.06  0.00  0.91  0.00  0.00  0.00  0.05  0.00
  YSB1154YSB6556          1.00   0.11  0.00  0.00  0.89  0.00  0.00  0.00  0.01  0.00
  YSB1171HS02004479       1.00   0.07  0.00  0.00  0.92  0.00  0.00  0.01  0.09  0.00
  YSB1174YSB1171          1.00   0.08  0.02  0.00  0.90  0.00  0.00  0.00  0.00  0.00
  YSB6556YSB1171          1.00   0.07  0.03  0.00  0.89  0.00  0.00  0.00  0.00  0.00
  
  
  *************************
  Conduit Surcharge Summary
  *************************
  
  ----------------------------------------------------------------------------
                                                           Hours        Hours 
                         --------- Hours Full --------   Above Full   Capacity
  Conduit                Both Ends  Upstream  Dnstream   Normal Flow   Limited
  ----------------------------------------------------------------------------
  HS02004478WS02006287        0.81      0.81      1.01      0.01         0.01
  HS02004479HS02004480        1.02      1.02      1.05      0.01         0.01
  HS02004480HS02004478        0.93      1.02      0.93      1.97         0.93
  HS02004770HS02004777        0.91      0.91      0.92      0.13         0.10
  HS02004777HS02004785        0.85      0.85      0.92      0.01         0.01
  HS02004785HS02004788        0.83      0.85      0.83      1.72         0.69
  HS02004788HS02004792        0.83      0.83      0.98      0.01         0.01
  HS02004792HS02004799        0.98      0.98      1.13      0.01         0.01
  HS02004799HS02004480        1.02      1.02      1.13      1.30         0.01
  HS02004802HS02004478        0.95      0.95      1.03      0.27         0.01
  HS02004807HS02004802        1.01      1.01      1.02      0.46         0.47
  HS02004817HS02004807        1.01      1.01      1.75      0.01         0.01
  HS02004817HS02004824        0.83      0.83      1.75      0.01         0.01
  HS02004824HS02004830        0.80      0.80      0.83      0.01         0.01
  HS02004830HS02004837        0.74      0.74      0.80      0.01         0.01
  HS02004837HS02004842        0.74      0.74      0.92      0.01         0.01
  HS02004842HS02004848        0.72      0.72      0.92      0.01         0.01
  HS02004848HS02004852        0.72      0.72      0.75      0.02         0.01
  HS02004852HS02004856        0.75      0.75      0.78      0.01         0.01
  HS02004856HS02004862        0.73      0.73      0.78      0.01         0.01
  HS02004862HS02004870        0.78      0.78      0.82      0.28         0.29
  HS02004870HS02004876        0.82      0.82      0.94      0.01         0.01
  HS02004876HS02004881        0.91      0.94      0.91      1.86         0.91
  HS02004881HS02006253        0.91      0.91      2.35      0.01         0.01
  HS02004901HS02004770        0.91      0.91      0.92      0.14         0.01
  WS02001213WS02003059        0.01      0.01      0.01      0.01         0.01
  WS02003059WS02003060        0.01      0.01      0.01      0.01         0.01
  WS02003072WS02003073        0.01      0.01      0.01      2.76         0.01
  WS02004401WS02004402        1.99      1.99      2.02      1.85         1.81
  WS02004402WS02004403        2.02      2.02      2.02      2.01         1.98
  WS02004403WS02004404        2.02      2.02      2.19      0.01         0.08
  WS02004404WS02004405        2.15      2.19      2.15      3.17         2.14
  WS02004405WS02004406        2.12      2.15      2.12      2.41         2.12
  WS02004406WS02004407        0.06      0.06      2.12      0.01         0.01
  WS02004407WS02004409        0.06      0.06      1.53      0.01         0.01
  WS02004409WS02004410        1.44      1.53      1.44      1.92         1.43
  WS02004410WS02004411        1.26      1.44      1.26      1.97         1.26
  WS02004411WS02004412        1.14      1.26      1.14      1.99         1.14
  WS02004412WS02004413        1.14      1.14      1.78      0.01         0.01
  WS02004413WS02003067        0.01      0.01      1.78      0.01         0.01
  WS02006109WS02006110        2.37      2.37      2.59      2.41         0.01
  WS02006110WS02006113        1.77      1.77      2.58      0.45         0.01
  WS02006111WS02006112        1.74      1.74      2.68      0.01         0.01
  WS02006112WS02006115        1.93      1.93      2.44      0.01         0.01
  WS02006113WS02006111        1.75      1.77      1.75      1.85         1.75
  WS02006115WS02006116        1.94      1.94      1.95      1.93         1.90
  WS02006116WS02004401        1.99      1.99      1.99      2.00         1.97
  WS02006228WS02006109        2.57      2.59      2.57      2.71         2.57
  WS02006229WS02006228        2.57      2.57      2.57      2.65         2.57
  WS02006230WS02006229        2.60      2.61      2.60      3.62         1.00
  WS02006231WS02006230        2.22      2.22      2.37      2.99         1.54
  WS02006232WS02006231        2.31      2.31      2.53      0.08         0.24
  WS02006234WS02006232        2.35      2.35      2.53      0.04         0.15
  WS02006235WS02006234        2.26      2.29      2.34      2.63         1.52
  WS02006238WS02006235        2.38      2.38      2.50      0.01         0.55
  WS02006239WS02006238        2.44      2.50      2.45      1.66         0.30
  WS02006240WS02006239        2.37      2.44      2.37      1.65         0.25
  WS02006242WS02006240        2.41      2.41      2.50      1.93         1.31
  WS02006243WS02006242        2.44      2.44      2.49      0.01         0.11
  WS02006245WS02006243        2.41      2.42      2.41      0.40         0.28
  WS02006247WS02006245        2.41      2.45      2.41      2.49         0.67
  WS02006248WS02006247        2.41      2.41      2.43      0.01         0.14
  WS02006249WS02006248        2.40      2.40      2.42      0.88         0.01
  WS02006251WS02006249        2.41      2.43      2.42      2.45         2.39
  WS02006252WS02006251        2.46      2.49      2.78      2.38         0.20
  WS02006253WS02006251        2.42      2.42      2.45      1.19         0.01
  WS02006256WS02006235        2.84      2.99      6.91      0.76         0.02
  WS02006280WS02006229        1.17      1.17      1.38      0.01         0.01
  WS02006284WS02006280        1.04      1.04      1.16      0.01         0.01
  WS02006287WS02006284        0.93      0.93      1.05      0.51         0.51
  YS02001580YS02001583        1.80      1.80      1.84      0.01         0.01
  YS02001583YS02001586        1.81      1.81      1.92      0.01         0.01
  YS02001586YS02001590        1.92      1.92      1.99      0.01         0.01
  YS02001590YS02001593        1.98      1.98      2.01      2.06         0.01
  YS02001593YS02001596        2.00      2.00      2.08      0.01         0.01
  YS02001596YS02001600        2.11      2.11      2.17      0.01         0.01
  YS02001600YS02001601        2.21      2.21      2.39      0.01         0.01
  YS02001601YS02001602        2.31      2.31      2.42      2.18         0.01
  YS02001602YS02001605        2.28      2.28      2.31      3.05         0.01
  YS02001605YS02001607        2.24      2.28      2.24      2.36         2.24
  YS02001607YS02001610        1.94      1.94      1.96      0.01         0.01
  YS02001610YS02001613        1.93      1.93      1.96      0.01         0.01
  YS02001613YS02001616        1.90      1.90      1.93      0.01         0.01
  YS02001616YS02001619        1.89      1.89      1.90      0.74         0.55
  YS02001619YS02001622        1.88      1.89      1.88      1.99         1.85
  YS02001622YS02001625        1.88      1.88      2.03      0.01         0.01
  YS02001625YS02001629        1.82      1.82      2.03      0.01         0.01
  YS02001629YS02163301        2.03      2.03      2.03      0.80         0.35
  YS02001633YS02163601        2.05      2.05      2.07      0.54         0.55
  YS02001641YS02001644        1.96      1.99      1.96      2.40         1.92
  YS02001644YS02001647        1.66      1.66      1.96      0.01         0.01
  YS02001647YS02001649        1.66      1.66      1.76      0.01         0.01
  YS02001649YS02001757        1.74      1.76      1.79      0.48         0.33
  YS02001652YS02001649        1.61      1.61      1.76      0.26         0.27
  YS02001655YS02001652        1.38      1.38      1.58      0.26         0.26
  YS02001658YS02001655        1.17      1.17      1.38      0.21         0.21
  YS02001661YS02001658        0.67      0.67      1.17      0.19         0.19
  YS02001664YS02001661        0.39      0.39      0.78      0.01         0.01
  YS02001745YS02001748        0.39      0.39      1.02      0.05         0.05
  YS02001748YS02001751        1.11      1.11      1.25      0.12         0.12
  YS02001751YS02001754        1.25      1.25      1.45      0.10         0.10
  YS02001754YS02001757        1.50      1.50      1.79      0.01         0.01
  YS02001757CaochengTiaoxuchi        1.60      1.79      1.88      1.51         1.18
  YS02001759YS02001757        1.71      1.71      1.79      0.17         0.11
  YS02001762YS02001759        1.68      1.68      1.71      0.01         0.01
  YS02001765YS02001762        1.65      1.65      1.68      0.01         0.01
  YS02001767YS02001765        1.62      1.62      1.65      0.01         0.02
  YS02001770YS02001767        1.62      1.62      1.62      1.63         0.99
  YS02001774YS02001770        1.61      1.61      1.68      0.01         0.01
  YS02001779YS02001774        1.48      1.48      1.68      0.01         0.01
  YS02001783YS02001784        1.68      1.70      1.68      1.84         1.68
  YS02001784YS02001785        1.54      1.68      1.54      1.95         1.54
  YS02001786YS02001788        0.01      1.54      0.01      1.90         0.01
  YS02001790YS02001791        0.01      0.01      0.01      1.66         0.01
  YS02001793JiankangQianchi        0.01      0.01      7.17      0.01         0.01
  YS02001882YS02001884        1.64      1.64      1.65      0.01         0.01
  YS02001884YS02001887        1.68      1.68      1.69      0.01         0.01
  YS02001887YS02001890        1.71      1.71      1.72      0.77         0.01
  YS02001890YS02001895        1.62      1.62      1.74      0.01         0.01
  YS02001895YS02001898        1.61      1.61      1.62      0.01         0.01
  YS02001898YS02001901        1.63      1.63      1.68      0.01         0.01
  YS02001901YS02001904        1.67      1.67      1.68      0.01         0.01
  YS02001904YS02001907        1.66      1.66      1.90      0.01         0.01
  YS02001907YS02006553        1.96      1.96      1.98      0.33         0.34
  YS02001910YS02001907        1.73      1.73      1.88      0.57         0.57
  YS02001915YS02001910        1.64      1.64      1.73      0.01         0.06
  YS02001918YS02001915        1.53      1.53      1.64      0.01         0.01
  YS02001920YS02001918        1.53      1.53      1.55      0.33         0.01
  YS02001923YS02001920        1.48      1.48      1.55      0.01         0.01
  YS02001926YS02001923        0.80      0.80      0.86      0.51         0.01
  YS02001929YS02001926        0.60      0.60      0.86      0.01         0.01
  YS02006553YS02006556        1.82      1.82      1.90      0.28         0.27
  YS02006556YS02006558        1.86      1.86      1.90      0.26         0.01
  YS02006558YS02006561        1.57      1.81      1.57      1.94         1.57
  YS02006561YS02001783        1.49      1.49      1.70      0.01         0.01
  YS02163301YS02001633        2.03      2.03      2.06      0.36         0.01
  YS02163601YS02164001        2.00      2.00      2.07      0.28         0.01
  YS02164001YS02001641        1.99      2.00      1.99      1.33         1.28
  YSB1154YSB6556              1.08      1.08      1.34      0.09         0.01
  YSB1171HS02004479           0.97      0.97      1.34      0.01         0.01
  YSB1174YSB1171              1.19      1.19      1.72      0.01         0.01
  YSB6556YSB1171              1.08      1.08      1.78      0.01         0.01
  
  
  ***************
  Pumping Summary
  ***************
  
  ---------------------------------------------------------------------------------------------------------
                                                  Min       Avg       Max     Total     Power    % Time Off
                        Percent   Number of      Flow      Flow      Flow    Volume     Usage    Pump Curve
  Pump                 Utilized   Start-Ups       LPS       LPS       LPS  10^6 ltr     Kw-hr    Low   High
  ---------------------------------------------------------------------------------------------------------
  CC-R1                   26.46           9      0.00    915.49   1024.50     6.669    126.02    0.0   16.7
  CC-R2                   34.88          91      0.00   1003.03   1024.50    10.065    185.86    0.0   32.7
  CC-S1                   31.67          86      0.00    243.14    300.00     2.244     15.96    0.0    0.0
  CC-S2                   33.69          42      0.00    293.45    300.00     2.845     19.66    0.0    0.0
  JK-R1                    7.47          41      0.00   1285.04   1500.00     2.733     27.86    0.0    0.0
  JK-R2                    9.44          53      0.00   1493.47   1500.00     4.055     27.54    0.0    0.0
  JK-S                    13.52          81      0.00    430.48    450.00     1.668     26.71    0.0    0.0
  XR-1                    97.91           2      0.00     95.00     95.00     2.679      9.60    0.0    0.0
  XR-2                    93.94           2      0.00     95.00     95.00     2.570      8.76    0.0    0.0
  XR-3                     0.00           1      0.00     95.00     95.00     0.000      0.00    0.0    0.0
  XR-4                     0.00           1      0.00     95.00     95.00     0.000      0.00    0.0    0.0
  

  Analysis begun on:  Thu Jul 20 18:55:16 2023
  Analysis ended on:  Thu Jul 20 18:55:50 2023
  Total elapsed time: 00:00:34