
  OWA STORM WATER MANAGEMENT MODEL - VERSION v5.1.14 (OWA 2022-07-31)
  --------------------------------------------------------------

  WARNING 04: minimum elevation drop used for Conduit WS02004404WS02004405
  WARNING 03: negative offset ignored for Link YS02001904YS02001907
  
  *********************************************************
  NOTE: The summary statistics displayed in this report are
  based on results found at every computational time step,  
  not just on results from each reporting time step.
  *********************************************************
  
  ****************
  Analysis Options
  ****************
  Flow Units ............... LPS
  Process Models:
    Rainfall/Runoff ........ YES
    RDII ................... NO
    Snowmelt ............... NO
    Groundwater ............ NO
    Flow Routing ........... YES
    Ponding Allowed ........ NO
    Water Quality .......... NO
  Infiltration Method ...... HORTON
  Flow Routing Method ...... DYNWAVE
  Surcharge Method ......... EXTRAN
  Starting Date ............ 08/28/2015 08:00:00
  Ending Date .............. 08/28/2015 16:00:00
  Antecedent Dry Days ...... 8.0
  Report Time Step ......... 00:01:00
  Wet Time Step ............ 00:01:00
  Dry Time Step ............ 00:01:00
  Routing Time Step ........ 30.00 sec
  Variable Time Step ....... YES
  Maximum Trials ........... 8
  Number of Threads ........ 4
  Head Tolerance ........... 0.001500 m
  
  
  **************************        Volume         Depth
  Runoff Quantity Continuity     hectare-m            mm
  **************************     ---------       -------
  Total Precipitation ......        10.113       166.940
  Evaporation Loss .........         0.000         0.000
  Infiltration Loss ........         0.252         4.168
  Surface Runoff ...........         9.802       161.801
  Final Storage ............         0.061         1.010
  Continuity Error (%) .....        -0.023
  
  
  **************************        Volume        Volume
  Flow Routing Continuity        hectare-m      10^6 ltr
  **************************     ---------     ---------
  Dry Weather Inflow .......         0.630         6.296
  Wet Weather Inflow .......         9.800        98.004
  Groundwater Inflow .......         0.000         0.000
  RDII Inflow ..............         0.000         0.000
  External Inflow ..........         0.105         1.045
  External Outflow .........         3.622        36.217
  Flooding Loss ............         6.905        69.049
  Evaporation Loss .........         0.000         0.000
  Exfiltration Loss ........         0.000         0.000
  Initial Stored Volume ....         0.303         3.031
  Final Stored Volume ......         0.321         3.213
  Continuity Error (%) .....        -0.095
  
  
  *************************
  Highest Continuity Errors
  *************************
  Node YS02001884 (4.63%)
  Node YS02001583 (-2.92%)
  Node HS02004842 (1.55%)
  
  
  ***************************
  Time-Step Critical Elements
  ***************************
  Link WS02006280WS02006229 (42.67%)
  Link YS02001791YS02001793 (15.57%)
  Link WS02006252WS02006251 (11.64%)
  Link WS02004404WS02004405 (8.70%)
  Link WS02006238WS02006235 (7.40%)
  
  
  ********************************
  Highest Flow Instability Indexes
  ********************************
  Link WS02004404WS02004405 (38)
  Link WS02006238WS02006235 (37)
  Link WS02006252WS02006251 (36)
  Link WS02006229WS02006228 (32)
  Link WS02004403WS02004404 (31)
  
  
  *************************
  Routing Time Step Summary
  *************************
  Minimum Time Step           :     0.01 sec
  Average Time Step           :     2.47 sec
  Maximum Time Step           :     6.46 sec
  Percent in Steady State     :     0.00
  Average Iterations per Step :     4.33
  Percent Not Converging      :    20.95
  
  
  ***************************
  Subcatchment Runoff Summary
  ***************************
  
  ------------------------------------------------------------------------------------------------------------------------------
                            Total      Total      Total      Total     Imperv       Perv      Total       Total     Peak  Runoff
                           Precip      Runon       Evap      Infil     Runoff     Runoff     Runoff      Runoff   Runoff   Coeff
  Subcatchment                 mm         mm         mm         mm         mm         mm         mm    10^6 ltr      LPS
  ------------------------------------------------------------------------------------------------------------------------------
  sub0                      80.76       0.00       0.00       1.02      73.87       4.63      78.50        0.06    44.80   0.972
  sub1                      80.76       0.00       0.00       1.73      70.64       7.15      77.79        0.52   298.16   0.963
  sub10                     80.76       0.00       0.00       1.23      73.02       5.24      78.26        0.86   511.52   0.969
  sub11                     80.76       0.00       0.00       1.21      73.04       5.26      78.30        0.91   569.38   0.970
  sub12                     80.76       0.00       0.00       1.96      69.09       8.54      77.63        0.68   459.58   0.961
  sub14                     80.76       0.00       0.00       1.38      72.24       5.89      78.14        0.74   453.89   0.968
  sub15                     80.76       0.00       0.00       5.32      55.57      18.91      74.48        1.28   683.58   0.922
  sub16                     80.76       0.00       0.00       5.53      53.21      21.13      74.34        0.78   458.83   0.920
  sub17                     80.76       0.00       0.00       5.39      54.00      20.46      74.46        0.64   373.28   0.922
  sub2                      80.76       0.00       0.00       7.55      49.98      22.33      72.31        0.67   299.53   0.895
  sub22                     80.76       0.00       0.00       8.03      45.26      26.70      71.95        4.55  2241.52   0.891
  sub23                     80.76       0.00       0.00       6.57      50.02      23.31      73.34        3.50  1872.47   0.908
  sub3                      80.76       0.00       0.00       8.21      49.94      21.68      71.61        1.61   646.72   0.887
  sub4                      80.76       0.00       0.00       1.91      70.47       6.97      77.44        1.62   718.37   0.959
  sub5                      80.76       0.00       0.00       1.07      73.81       4.59      78.40        0.89   515.93   0.971
  sub60                    238.15       0.00       0.00       1.95     208.41      26.63     235.04        3.09  2055.78   0.987
  sub61                    238.15       0.00       0.00       2.84     196.57      37.65     234.23        4.30  2864.71   0.984
  sub62                    238.15       0.00       0.00       1.30     217.85      17.76     235.61        6.46  4166.93   0.989
  sub63                    238.15       0.00       0.00       5.31     168.15      63.77     231.92        5.26  3408.42   0.974
  sub64                    238.15       0.00       0.00       2.68     201.25      33.05     234.31        5.63  3539.74   0.984
  sub65                    238.15       0.00       0.00       2.32     205.97      28.65     234.62        6.46  4003.07   0.985
  sub66                    238.15       0.00       0.00       6.71     168.03      62.36     230.39       10.74  5928.09   0.967
  sub67                    238.15       0.00       0.00       1.24     217.90      17.82     235.72        4.38  2968.18   0.990
  sub68                    238.15       0.00       0.00       2.36     203.66      30.99     234.65        6.46  4229.62   0.985
  sub69                    238.15       0.00       0.00       2.18     202.35      33.55     235.90        8.73  5343.66   0.991
  sub7                      80.76       0.00       0.00       1.36      72.26       5.91      78.17        0.26   168.23   0.968
  sub70                    238.15       0.00       0.00       7.47     157.03      73.51     230.54        6.66  3410.01   0.968
  sub71                    238.15       0.00       0.00       1.34     217.80      17.71     235.52        6.16  3829.49   0.989
  sub72                    238.15       0.00       0.00       1.20     220.10      15.48     235.58        3.24  1927.14   0.989
  sub8                      80.76       0.00       0.00       1.37      72.25       5.90      78.15        0.50   308.96   0.968
  sub9                      80.76       0.00       0.00       1.38      72.24       5.90      78.14        0.38   230.81   0.968
  
  
  ******************
  Node Depth Summary
  ******************
  
  ---------------------------------------------------------------------------------
                                 Average  Maximum  Maximum  Time of Max    Reported
                                   Depth    Depth      HGL   Occurrence   Max Depth
  Node                 Type       Meters   Meters   Meters  days hr:min      Meters
  ---------------------------------------------------------------------------------
  HS02004478           JUNCTION     0.28     1.60    10.83     0  01:35        1.60
  HS02004479           JUNCTION     0.36     1.85    11.05     0  01:52        1.85
  HS02004480           JUNCTION     0.33     1.69    10.93     0  01:34        1.65
  HS02004770           JUNCTION     0.32     1.42    11.25     0  01:33        1.42
  HS02004777           JUNCTION     0.34     1.48    11.28     0  01:33        1.48
  HS02004785           JUNCTION     0.24     1.49    11.39     0  01:33        1.35
  HS02004788           JUNCTION     0.20     1.42    11.32     0  01:33        1.36
  HS02004792           JUNCTION     0.27     1.60    11.12     0  01:33        1.60
  HS02004799           JUNCTION     0.39     1.76    10.97     0  01:33        1.76
  HS02004802           JUNCTION     0.38     1.81    10.94     0  01:36        1.80
  HS02004807           JUNCTION     0.36     1.92    11.09     0  01:34        1.92
  HS02004817           JUNCTION     0.67     2.44    11.29     0  01:35        2.41
  HS02004824           JUNCTION     0.23     2.01    11.41     0  01:34        2.01
  HS02004830           JUNCTION     0.23     2.03    11.50     0  01:34        1.99
  HS02004837           JUNCTION     0.20     2.04    11.62     0  01:34        1.92
  HS02004842           JUNCTION     0.49     2.22    11.49     0  01:35        2.22
  HS02004848           JUNCTION     0.18     2.03    11.63     0  01:35        1.91
  HS02004852           JUNCTION     0.19     2.07    11.58     0  01:35        1.97
  HS02004856           JUNCTION     0.25     2.07    11.50     0  01:35        2.02
  HS02004862           JUNCTION     0.20     2.00    11.38     0  01:35        2.00
  HS02004870           JUNCTION     0.20     2.10    11.39     0  01:35        2.02
  HS02004876           JUNCTION     0.25     2.26    11.29     0  01:35        2.11
  HS02004881           JUNCTION     0.19     2.05    11.08     0  01:35        1.86
  HS02004901           JUNCTION     0.33     1.42    11.24     0  01:33        1.42
  WS02001211           JUNCTION     0.64     0.82     5.66     0  01:42        0.82
  WS02001212           JUNCTION     0.39     0.59     5.66     0  01:41        0.58
  WS02001213           JUNCTION     0.61     0.89     5.65     0  01:38        0.89
  WS02003059           JUNCTION     0.67     0.96     5.64     0  01:39        0.95
  WS02003060           JUNCTION     0.40     0.70     5.63     0  01:42        0.70
  WS02003066           JUNCTION     0.24     0.46     6.02     0  01:39        0.46
  WS02003067           JUNCTION     0.57     0.90     6.22     0  01:37        0.89
  WS02003069           JUNCTION     0.45     0.79     5.37     0  01:43        0.79
  WS02003072           JUNCTION     0.51     0.82     5.19     0  01:43        0.82
  WS02003073           JUNCTION     0.31     0.52     4.59     0  01:44        0.52
  WS02004138           JUNCTION     0.13     0.14     7.39     0  00:29        0.14
  WS02004139           JUNCTION     0.58     0.75     5.66     0  01:43        0.75
  WS02004401           JUNCTION     0.83     2.66     8.66     0  01:29        2.66
  WS02004402           JUNCTION     0.84     2.74     8.70     0  01:29        2.74
  WS02004403           JUNCTION     0.84     3.03     8.96     0  01:29        3.03
  WS02004404           JUNCTION     0.90     3.26     9.11     0  01:29        3.26
  WS02004405           JUNCTION     0.88     3.08     8.93     0  01:29        3.08
  WS02004406           JUNCTION     0.87     2.34     8.17     0  01:29        2.34
  WS02004407           JUNCTION     0.30     0.98     7.30     0  01:38        0.98
  WS02004409           JUNCTION     0.59     1.42     7.19     0  01:39        1.42
  WS02004410           JUNCTION     0.59     1.32     7.04     0  01:39        1.32
  WS02004411           JUNCTION     0.59     1.23     6.91     0  01:39        1.22
  WS02004412           JUNCTION     0.58     1.12     6.76     0  01:39        1.12
  WS02004413           JUNCTION     0.71     1.15     6.62     0  01:39        1.15
  WS02006109           JUNCTION     1.09     2.64     9.26     0  01:29        2.64
  WS02006110           JUNCTION     1.00     2.76     9.34     0  01:29        2.76
  WS02006111           JUNCTION     0.50     2.56     9.26     0  01:29        2.56
  WS02006112           JUNCTION     1.06     2.68     8.56     0  01:28        2.68
  WS02006113           JUNCTION     0.58     2.73     9.62     0  01:29        2.73
  WS02006115           JUNCTION     0.77     3.26     9.40     0  01:29        3.26
  WS02006116           JUNCTION     0.83     3.35     9.39     0  01:29        3.35
  WS02006228           JUNCTION     1.16     3.03     9.68     0  01:35        3.03
  WS02006229           JUNCTION     1.19     3.24     9.93     0  01:35        3.23
  WS02006230           JUNCTION     1.10     2.65     9.39     0  01:24        2.65
  WS02006231           JUNCTION     0.83     2.24     9.36     0  01:24        2.19
  WS02006232           JUNCTION     0.92     2.18     9.22     0  01:24        2.18
  WS02006234           JUNCTION     0.81     1.96     9.12     0  01:31        1.96
  WS02006235           JUNCTION     0.82     2.00     9.16     0  02:30        1.97
  WS02006238           JUNCTION     0.84     2.10     9.24     0  01:52        2.10
  WS02006239           JUNCTION     0.78     1.96     9.17     0  03:40        1.89
  WS02006240           JUNCTION     0.73     2.10     9.39     0  03:36        2.10
  WS02006242           JUNCTION     0.77     1.55     8.82     0  01:24        1.55
  WS02006243           JUNCTION     0.66     1.48     8.90     0  01:52        1.48
  WS02006245           JUNCTION     0.63     1.56     9.04     0  03:36        1.56
  WS02006247           JUNCTION     0.64     1.47     8.97     0  03:36        1.47
  WS02006248           JUNCTION     0.58     1.10     8.69     0  01:22        1.10
  WS02006249           JUNCTION     0.60     1.09     8.69     0  01:22        1.09
  WS02006251           JUNCTION     0.78     2.21     9.88     0  01:35        2.16
  WS02006252           JUNCTION     0.56     1.50     9.74     0  00:00        1.50
  WS02006253           JUNCTION     0.87     3.15    10.79     0  01:35        3.13
  WS02006256           JUNCTION     1.21     2.35     9.28     0  00:00        2.35
  WS02006280           JUNCTION     0.36     1.81    10.08     0  01:52        1.81
  WS02006284           JUNCTION     0.61     1.96    10.36     0  01:35        1.95
  WS02006287           JUNCTION     0.35     1.75    10.71     0  01:35        1.74
  WSF200               JUNCTION     0.24     0.53     5.76     0  01:40        0.53
  YS02001580           JUNCTION     0.23     1.03     9.57     0  01:30        0.79
  YS02001583           JUNCTION     0.26     1.14     9.64     0  01:30        1.14
  YS02001586           JUNCTION     0.40     1.13     9.30     0  01:30        1.13
  YS02001590           JUNCTION     0.53     1.40     9.26     0  01:30        1.40
  YS02001593           JUNCTION     0.45     1.43     9.29     0  01:30        1.43
  YS02001596           JUNCTION     0.60     1.74     9.16     0  01:30        1.74
  YS02001600           JUNCTION     0.70     1.87     9.00     0  01:29        1.87
  YS02001601           JUNCTION     0.90     2.06     8.90     0  01:29        2.06
  YS02001602           JUNCTION     0.79     1.87     8.77     0  01:39        1.87
  YS02001605           JUNCTION     0.73     1.78     8.68     0  01:49        1.78
  YS02001607           JUNCTION     0.69     1.68     8.53     0  01:52        1.68
  YS02001610           JUNCTION     0.73     1.68     8.48     0  01:41        1.68
  YS02001613           JUNCTION     0.69     1.69     8.53     0  02:05        1.69
  YS02001616           JUNCTION     0.63     1.61     8.52     0  01:52        1.61
  YS02001619           JUNCTION     0.61     1.61     8.54     0  02:05        1.61
  YS02001622           JUNCTION     0.59     1.62     8.52     0  01:52        1.62
  YS02001625           JUNCTION     0.84     1.78     8.38     0  01:42        1.78
  YS02001629           JUNCTION     0.75     1.85     8.40     0  01:51        1.85
  YS02001633           JUNCTION     0.84     2.08     8.53     0  01:52        2.08
  YS02001641           JUNCTION     0.80     2.10     8.54     0  01:52        2.10
  YS02001644           JUNCTION     0.79     1.92     8.35     0  01:51        1.92
  YS02001647           JUNCTION     0.57     1.80     8.41     0  02:30        1.80
  YS02001649           JUNCTION     0.64     2.05     8.44     0  01:52        2.05
  YS02001652           JUNCTION     0.52     2.15     8.75     0  02:27        2.15
  YS02001655           JUNCTION     0.44     2.20     9.05     0  02:20        2.20
  YS02001658           JUNCTION     0.36     2.30     9.44     0  02:22        2.30
  YS02001661           JUNCTION     0.35     2.44     9.85     0  02:27        2.44
  YS02001664           JUNCTION     0.19     2.31    10.23     0  02:22        2.31
  YS02001745           JUNCTION     0.21     1.99     9.50     0  02:25        1.99
  YS02001748           JUNCTION     0.32     2.14     9.22     0  02:23        2.12
  YS02001751           JUNCTION     0.38     2.11     8.99     0  02:23        2.09
  YS02001754           JUNCTION     0.47     2.14     8.75     0  02:23        2.13
  YS02001757           JUNCTION     0.66     2.21     8.47     0  01:52        2.21
  YS02001759           JUNCTION     0.60     2.21     8.57     0  01:52        2.21
  YS02001762           JUNCTION     0.59     2.15     8.55     0  01:52        2.15
  YS02001765           JUNCTION     0.57     2.10     8.55     0  01:52        2.10
  YS02001767           JUNCTION     0.56     2.03     8.52     0  01:52        2.03
  YS02001770           JUNCTION     0.57     1.95     8.44     0  01:52        1.95
  YS02001774           JUNCTION     0.63     2.05     8.47     0  01:52        2.05
  YS02001779           JUNCTION     0.45     1.68     8.37     0  01:52        1.68
  YS02001783           JUNCTION     0.44     1.49     7.63     0  02:22        1.48
  YS02001784           JUNCTION     0.43     1.32     7.39     0  02:26        1.31
  YS02001786           JUNCTION     0.35     1.00     7.03     0  02:26        0.99
  YS02001788           JUNCTION     0.25     0.70     6.67     0  02:26        0.68
  YS02001790           JUNCTION     0.29     0.79     6.43     0  02:26        0.76
  YS02001791           JUNCTION     0.18     0.47     5.94     0  02:26        0.46
  YS02001793           JUNCTION     0.09     0.38     5.21     0  02:25        0.35
  YS02001882           JUNCTION     0.56     1.83     8.55     0  02:20        1.83
  YS02001884           JUNCTION     0.65     1.93     8.55     0  02:20        1.93
  YS02001887           JUNCTION     0.72     2.00     8.54     0  02:20        2.00
  YS02001890           JUNCTION     0.74     1.81     8.32     0  01:52        1.81
  YS02001895           JUNCTION     0.52     1.57     8.32     0  02:05        1.57
  YS02001898           JUNCTION     0.52     1.57     8.31     0  02:30        1.57
  YS02001901           JUNCTION     0.63     1.77     8.38     0  01:52        1.77
  YS02001904           JUNCTION     0.61     1.66     8.29     0  01:52        1.66
  YS02001907           JUNCTION     0.92     1.96     8.25     0  01:41        1.96
  YS02001910           JUNCTION     0.76     2.01     8.52     0  02:27        2.01
  YS02001915           JUNCTION     0.59     2.00     8.72     0  02:11        2.00
  YS02001918           JUNCTION     0.42     1.81     8.88     0  02:18        1.81
  YS02001920           JUNCTION     0.50     2.04     9.05     0  02:25        2.04
  YS02001923           JUNCTION     0.36     1.92     9.18     0  02:27        1.92
  YS02001926           JUNCTION     0.36     1.89     9.33     0  02:25        1.89
  YS02001929           JUNCTION     0.26     1.78     9.47     0  02:22        1.78
  YS02006553           JUNCTION     0.93     2.16     8.44     0  02:25        2.16
  YS02006556           JUNCTION     0.91     2.34     8.65     0  02:25        2.34
  YS02006558           JUNCTION     0.95     2.50     8.77     0  02:22        2.50
  YS02006561           JUNCTION     0.30     1.21     7.87     0  02:26        1.20
  YS02163301           JUNCTION     0.78     2.03     8.55     0  01:52        2.03
  YS02163601           JUNCTION     0.86     2.08     8.48     0  01:52        2.08
  YS02164001           JUNCTION     0.79     2.10     8.56     0  01:52        2.10
  YSB1154              JUNCTION     0.50     1.98    11.04     0  01:38        1.98
  YSB1171              JUNCTION     0.64     1.95    10.85     0  01:33        1.95
  YSB1174              JUNCTION     0.45     1.83    10.94     0  01:37        1.83
  YSB6556              JUNCTION     0.39     1.79    10.96     0  01:33        1.77
  CC-1                 OUTFALL      0.00     0.00     0.00     0  00:00        0.00
  CC-2                 OUTFALL      0.00     0.00     0.00     0  00:00        0.00
  JK-1                 OUTFALL      0.00     0.00     0.00     0  00:00        0.00
  JK-2                 OUTFALL      0.00     0.00     0.00     0  00:00        0.00
  WSC                  OUTFALL      0.31     0.52     1.19     0  01:44        0.52
  CC-storage           STORAGE      0.88     1.87     7.37     0  02:48        1.87
  JK-storage           STORAGE      1.68     4.23     5.03     0  01:44        4.21
  XR-storage           STORAGE      7.85     9.26     7.26     0  08:00        9.26
  
  
  *******************
  Node Inflow Summary
  *******************
  
  -------------------------------------------------------------------------------------------------
                                  Maximum  Maximum                  Lateral       Total        Flow
                                  Lateral    Total  Time of Max      Inflow      Inflow     Balance
                                   Inflow   Inflow   Occurrence      Volume      Volume       Error
  Node                 Type           LPS      LPS  days hr:min    10^6 ltr    10^6 ltr     Percent
  -------------------------------------------------------------------------------------------------
  HS02004478           JUNCTION      0.00  2309.46     0  01:36           0        10.1      -0.011
  HS02004479           JUNCTION      0.00   542.93     0  01:35           0       0.986       0.073
  HS02004480           JUNCTION      0.00  2196.10     0  01:34           0        7.45       0.024
  HS02004770           JUNCTION   1872.47  1872.47     0  01:39         3.5        3.75       0.073
  HS02004777           JUNCTION      0.03   838.12     0  01:33    0.000864         2.1       0.240
  HS02004785           JUNCTION      0.15   837.63     0  01:33     0.00432         2.1       0.013
  HS02004788           JUNCTION    685.25   862.27     0  01:39        1.33        3.43      -0.022
  HS02004792           JUNCTION   2241.80  3101.02     0  01:39        4.55        7.98       0.008
  HS02004799           JUNCTION    453.89  1740.08     0  01:34       0.744        6.84       0.043
  HS02004802           JUNCTION      0.00  1233.71     0  01:42           0        2.91       0.132
  HS02004807           JUNCTION    569.38  1762.84     0  01:39        0.91        3.19       0.128
  HS02004817           JUNCTION      0.60  1197.00     0  01:43      0.0173        2.34       0.718
  HS02004824           JUNCTION    718.42  1296.71     0  01:42        1.62        2.57       0.024
  HS02004830           JUNCTION      0.15   761.08     0  01:34     0.00432        1.17       0.114
  HS02004837           JUNCTION    517.87  1015.07     0  01:34        1.05        1.52       0.027
  HS02004842           JUNCTION      0.00   994.49     0  01:34           0        0.85       1.577
  HS02004848           JUNCTION    646.72  1241.88     0  01:34        1.61        2.22      -0.002
  HS02004852           JUNCTION      0.00  1212.40     0  01:35           0           2       0.004
  HS02004856           JUNCTION    230.81  1347.78     0  01:35       0.376        2.38       0.067
  HS02004862           JUNCTION    299.73  1489.82     0  01:35        0.68        3.05      -0.013
  HS02004870           JUNCTION    308.96  1261.62     0  01:36       0.499        3.52      -0.044
  HS02004876           JUNCTION    298.16  1512.17     0  01:42       0.517        4.04       0.008
  HS02004881           JUNCTION    168.23  1664.47     0  01:39       0.263         4.3       0.011
  HS02004901           JUNCTION    458.83   691.23     0  01:40       0.778        1.22       0.143
  WS02001211           JUNCTION      7.35   217.62     0  01:34       0.212        5.44       0.611
  WS02001212           JUNCTION      0.00   233.47     0  01:32           0        5.41       0.290
  WS02001213           JUNCTION      0.00   259.61     0  01:37           0         5.4       0.329
  WS02003059           JUNCTION      0.00   278.37     0  01:31           0         5.4       0.593
  WS02003060           JUNCTION     16.53  1549.75     0  01:39       0.476        15.2       0.096
  WS02003066           JUNCTION      0.00  1334.51     0  01:39           0        9.38       0.016
  WS02003067           JUNCTION      0.00  1332.20     0  01:39           0        9.38       0.047
  WS02003069           JUNCTION      0.32  1539.96     0  01:42     0.00922        15.2       0.102
  WS02003072           JUNCTION      0.00  1538.61     0  01:43           0        15.2       0.138
  WS02003073           JUNCTION      1.82  1540.30     0  01:43      0.0524        15.2       0.142
  WS02004138           JUNCTION      0.00   380.00     0  00:00           0        5.25       0.054
  WS02004139           JUNCTION      0.32   191.14     0  00:29     0.00924        5.26       0.508
  WS02004401           JUNCTION      0.00  1331.71     0  01:38           0        9.49       0.110
  WS02004402           JUNCTION      0.00  1331.91     0  01:39           0        9.48       0.113
  WS02004403           JUNCTION      0.00  1332.70     0  01:38           0        9.47       0.109
  WS02004404           JUNCTION      0.16  1332.35     0  01:38     0.00467        9.46       0.094
  WS02004405           JUNCTION      0.04  1333.46     0  01:38      0.0011        9.45       0.130
  WS02004406           JUNCTION      0.00  1332.94     0  01:39           0        9.44       0.224
  WS02004407           JUNCTION      0.00  1332.88     0  01:39           0        9.42       0.016
  WS02004409           JUNCTION      0.00  1332.00     0  01:39           0        9.42       0.034
  WS02004410           JUNCTION      0.00  1332.23     0  01:39           0        9.42       0.052
  WS02004411           JUNCTION      0.00  1332.33     0  01:39           0        9.41       0.065
  WS02004412           JUNCTION      0.00  1332.16     0  01:39           0        9.41       0.084
  WS02004413           JUNCTION      0.00  1332.15     0  01:39           0         9.4       0.148
  WS02006109           JUNCTION      1.23  1291.50     0  01:36      0.0354        9.28       0.093
  WS02006110           JUNCTION      0.00  1124.15     0  02:07           0        8.89       0.085
  WS02006111           JUNCTION      0.00  1124.14     0  02:07           0        8.88       0.011
  WS02006112           JUNCTION    373.28  1332.40     0  01:38       0.639        9.52       0.205
  WS02006113           JUNCTION      0.00  1124.01     0  02:07           0        8.88       0.024
  WS02006115           JUNCTION      0.00  1331.80     0  01:38           0         9.5       0.076
  WS02006116           JUNCTION      0.00  1332.24     0  01:38           0        9.49       0.003
  WS02006228           JUNCTION      0.00  1290.77     0  01:36           0        9.24       0.040
  WS02006229           JUNCTION      0.00  2310.26     0  01:36           0        12.2       0.059
  WS02006230           JUNCTION     10.28  1029.35     0  01:36       0.296        5.08       0.158
  WS02006231           JUNCTION      0.00   530.69     0  03:35           0        3.55      -0.120
  WS02006232           JUNCTION      0.00   528.98     0  03:35           0        3.55       0.188
  WS02006234           JUNCTION      0.00   528.51     0  03:40           0        3.55      -0.156
  WS02006235           JUNCTION      0.00   533.04     0  01:23           0        3.55       0.135
  WS02006238           JUNCTION      0.00   521.57     0  01:23           0        3.17      -0.203
  WS02006239           JUNCTION      0.00   556.61     0  01:23           0        3.14      -0.169
  WS02006240           JUNCTION      0.00   595.62     0  01:22           0        3.13      -0.045
  WS02006242           JUNCTION      0.00   589.89     0  01:22           0        3.13      -0.069
  WS02006243           JUNCTION      0.00   639.34     0  01:22           0        2.66      -0.169
  WS02006245           JUNCTION      0.00   644.62     0  01:22           0        2.68       0.633
  WS02006247           JUNCTION      0.00   645.12     0  01:22           0        2.68       0.028
  WS02006248           JUNCTION      0.00   648.57     0  01:22           0           3      -0.164
  WS02006249           JUNCTION      0.00  1378.90     0  01:38           0        7.97       0.213
  WS02006251           JUNCTION      0.08  1707.59     0  01:38     0.00222        8.29       0.009
  WS02006252           JUNCTION      0.00   928.99     0  01:38           0        5.15      -0.604
  WS02006253           JUNCTION     44.80  1707.80     0  01:39      0.0636        4.45       0.065
  WS02006256           JUNCTION      0.00   450.00     0  00:20           0        1.92      -0.200
  WS02006280           JUNCTION      0.00  2309.27     0  01:36           0        10.1       0.014
  WS02006284           JUNCTION      0.10  2308.86     0  01:36     0.00275        10.1      -0.003
  WS02006287           JUNCTION      0.00  2310.04     0  01:36           0        10.1       0.007
  WSF200               JUNCTION      0.00  1334.14     0  01:39           0        9.38       0.008
  YS02001580           JUNCTION      0.00    59.88     0  01:29           0     0.00434       1.087
  YS02001583           JUNCTION      0.00    91.11     0  01:29           0      0.0163      -2.836
  YS02001586           JUNCTION   3410.01  3410.01     0  02:25        6.66        6.67       0.020
  YS02001590           JUNCTION      0.00   326.30     0  01:52           0        2.39      -0.043
  YS02001593           JUNCTION      0.00   324.87     0  01:52           0        2.39       0.010
  YS02001596           JUNCTION      0.00   318.66     0  01:52           0        2.39       0.000
  YS02001600           JUNCTION      0.00   318.77     0  01:52           0        2.39       0.021
  YS02001601           JUNCTION   5343.66  5660.77     0  02:25        8.73        11.1       0.012
  YS02001602           JUNCTION      0.00   502.29     0  01:29           0        3.45       0.016
  YS02001605           JUNCTION      0.00   502.58     0  01:29           0        3.14       0.025
  YS02001607           JUNCTION      0.00   502.91     0  01:29           0        3.14       0.061
  YS02001610           JUNCTION      0.00   957.24     0  02:27           0        4.89       0.054
  YS02001613           JUNCTION      0.00   620.63     0  02:27           0        3.39       0.053
  YS02001616           JUNCTION      0.00   620.51     0  02:27           0         3.4       0.010
  YS02001619           JUNCTION   5928.09  5928.09     0  02:25        10.7        12.4       0.004
  YS02001622           JUNCTION      0.00  1053.97     0  02:28           0        7.25      -0.000
  YS02001625           JUNCTION      0.00  1505.50     0  02:26           0        8.48       0.113
  YS02001629           JUNCTION      0.00  1139.07     0  02:25           0        5.54       0.015
  YS02001633           JUNCTION   4003.27  4003.27     0  02:25        6.46        9.87       0.033
  YS02001641           JUNCTION      0.00  1329.19     0  01:40           0        6.91       0.040
  YS02001644           JUNCTION   3539.78  5291.54     0  02:25        5.63        13.5       0.029
  YS02001647           JUNCTION      0.00  1681.65     0  01:41           0        7.94       0.006
  YS02001649           JUNCTION      0.00  2979.33     0  02:25           0        12.1       0.001
  YS02001652           JUNCTION      0.00  2429.33     0  02:26           0        5.04      -0.025
  YS02001655           JUNCTION      0.15  2731.44     0  02:27     0.00443        5.15       0.017
  YS02001658           JUNCTION      0.00  2783.76     0  02:25           0        5.16      -0.023
  YS02001661           JUNCTION      0.00  2783.85     0  02:25           0        5.16       0.005
  YS02001664           JUNCTION   3408.42  3408.42     0  02:25        5.26        5.26      -0.005
  YS02001745           JUNCTION   2055.78  2055.78     0  02:25        3.09        3.09       0.039
  YS02001748           JUNCTION      0.04  2059.42     0  02:25      0.0013        3.09      -0.056
  YS02001751           JUNCTION      0.01  2060.56     0  02:25    0.000317        3.09       0.029
  YS02001754           JUNCTION      0.26  2065.75     0  02:25     0.00749         3.1      -0.047
  YS02001757           JUNCTION      0.00  3562.46     0  02:25           0        19.3       0.033
  YS02001759           JUNCTION   2864.75  2864.75     0  02:25         4.3        6.77      -0.005
  YS02001762           JUNCTION      0.00   742.28     0  01:58           0        2.96       0.001
  YS02001765           JUNCTION      0.00   741.66     0  01:58           0        2.96      -0.000
  YS02001767           JUNCTION      0.54   742.21     0  01:58      0.0154        2.96      -0.001
  YS02001770           JUNCTION   4167.09  4889.09     0  02:25        6.46        6.99      -0.003
  YS02001774           JUNCTION      0.00   852.11     0  02:24           0        1.82       0.065
  YS02001779           JUNCTION      0.01   851.79     0  02:26    0.000144        1.77      -0.000
  YS02001783           JUNCTION      0.00  1321.83     0  02:25           0        7.64       0.002
  YS02001784           JUNCTION      1.06  1322.48     0  02:26      0.0305        7.67       0.007
  YS02001786           JUNCTION      0.06  1322.63     0  02:23     0.00162        7.67       0.009
  YS02001788           JUNCTION      0.07  1322.45     0  02:24     0.00204        7.67       0.003
  YS02001790           JUNCTION      0.15  1347.64     0  02:26     0.00446        7.68       0.037
  YS02001791           JUNCTION      0.00  1418.31     0  02:25           0        7.67      -0.056
  YS02001793           JUNCTION      0.00  1446.68     0  02:26           0        7.68       0.004
  YS02001882           JUNCTION      0.00    36.39     0  01:29           0      0.0156       4.230
  YS02001884           JUNCTION      0.00    49.14     0  01:16           0      0.0518       4.852
  YS02001887           JUNCTION   2968.63  2968.63     0  02:25         4.4        4.43       0.091
  YS02001890           JUNCTION      0.00  2052.03     0  02:27           0        4.18       0.129
  YS02001895           JUNCTION      0.00   518.51     0  02:25           0         2.5       0.083
  YS02001898           JUNCTION      0.00   518.90     0  02:25           0         2.5      -0.001
  YS02001901           JUNCTION      0.00   518.51     0  02:03           0         2.5       0.125
  YS02001904           JUNCTION      0.00   518.31     0  02:25           0        2.51       0.115
  YS02001907           JUNCTION      0.00  4672.24     0  02:26           0        11.5       0.159
  YS02001910           JUNCTION      0.00  1993.15     0  02:14           0        7.23       0.098
  YS02001915           JUNCTION   3829.51  5051.20     0  02:25        6.16        9.24       0.018
  YS02001918           JUNCTION      0.00  1682.75     0  02:25           0        3.28       0.009
  YS02001920           JUNCTION      2.87  1681.97     0  02:27      0.0827        3.29       0.025
  YS02001923           JUNCTION      0.04  1679.15     0  02:25     0.00109         3.2       0.000
  YS02001926           JUNCTION      0.05  1679.44     0  02:25      0.0015         3.2       0.006
  YS02001929           JUNCTION   1927.14  1927.14     0  02:25        3.24        3.24      -0.001
  YS02006553           JUNCTION      0.00  2160.86     0  02:26           0         4.8       0.245
  YS02006556           JUNCTION      0.00  2161.63     0  02:25           0        4.81       0.169
  YS02006558           JUNCTION   4230.50  4230.50     0  02:25        6.48        9.53       0.034
  YS02006561           JUNCTION      0.00  1321.83     0  02:25           0        7.64       0.001
  YS02163301           JUNCTION      0.00  1138.89     0  02:23           0        5.55       0.029
  YS02163601           JUNCTION      0.11  1330.89     0  01:40     0.00317         6.9       0.072
  YS02164001           JUNCTION      0.00  1330.74     0  01:40           0         6.9       0.036
  YSB1154              JUNCTION    515.93   515.93     0  01:39       0.888       0.889       0.169
  YSB1171              JUNCTION      0.00  1195.32     0  01:39           0        1.75       0.361
  YSB1174              JUNCTION    459.58   459.58     0  01:38       0.679       0.679       0.181
  YSB6556              JUNCTION      0.00   516.16     0  01:39           0        0.89       0.122
  CC-1                 OUTFALL       0.00  1024.50     0  00:05           0        5.73       0.000
  CC-2                 OUTFALL       0.00  1024.50     0  00:05           0        9.44       0.000
  JK-1                 OUTFALL       0.00  1500.00     0  02:15           0        2.09       0.000
  JK-2                 OUTFALL       0.00  1500.00     0  01:20           0        3.78       0.000
  WSC                  OUTFALL       0.00  1539.23     0  01:44           0        15.2       0.000
  CC-storage           STORAGE       0.00  3146.54     0  01:58           0        21.4      -0.149
  JK-storage           STORAGE       0.00  1437.75     0  02:27           0        7.83      -0.203
  XR-storage           STORAGE     200.00   200.00     0  00:00        5.76        6.36       0.001
  
  
  **********************
  Node Surcharge Summary
  **********************
  
  Surcharging occurs when water rises above the top of the highest conduit.
  ---------------------------------------------------------------------
                                               Max. Height   Min. Depth
                                   Hours       Above Crown    Below Rim
  Node                 Type      Surcharged         Meters       Meters
  ---------------------------------------------------------------------
  HS02004478           JUNCTION        0.65          0.679        0.261
  HS02004479           JUNCTION        0.80          1.050        0.000
  HS02004480           JUNCTION        0.84          0.980        0.120
  HS02004770           JUNCTION        0.74          0.720        0.000
  HS02004777           JUNCTION        0.75          0.780        0.000
  HS02004785           JUNCTION        0.69          0.790        0.000
  HS02004788           JUNCTION        0.68          0.720        0.000
  HS02004792           JUNCTION        0.81          0.900        0.000
  HS02004799           JUNCTION        0.93          1.060        0.000
  HS02004802           JUNCTION        0.85          1.102        0.108
  HS02004807           JUNCTION        0.83          1.220        0.000
  HS02004817           JUNCTION        1.55          1.740        0.000
  HS02004824           JUNCTION        0.68          1.310        0.000
  HS02004830           JUNCTION        0.65          1.330        0.000
  HS02004837           JUNCTION        0.60          1.340        0.000
  HS02004842           JUNCTION        0.75          1.520        0.000
  HS02004848           JUNCTION        0.57          1.326        0.044
  HS02004852           JUNCTION        0.60          1.369        0.051
  HS02004856           JUNCTION        0.59          1.300        0.000
  HS02004862           JUNCTION        0.63          1.300        0.000
  HS02004870           JUNCTION        0.65          1.400        0.000
  HS02004876           JUNCTION        0.76          1.560        0.000
  HS02004881           JUNCTION        0.74          1.349        0.101
  HS02004901           JUNCTION        0.75          0.720        0.000
  WS02004401           JUNCTION        1.86          1.660        0.000
  WS02004402           JUNCTION        1.87          1.740        0.000
  WS02004403           JUNCTION        1.87          2.030        0.000
  WS02004404           JUNCTION        2.05          2.257        0.523
  WS02004405           JUNCTION        2.00          2.083        0.717
  WS02004406           JUNCTION        1.97          1.344        1.106
  WS02004409           JUNCTION        1.27          0.420        1.940
  WS02004410           JUNCTION        1.19          0.324        2.216
  WS02004411           JUNCTION        1.07          0.228        2.302
  WS02004412           JUNCTION        0.97          0.120        2.190
  WS02004413           JUNCTION        1.63          0.155        2.045
  WS02006109           JUNCTION        2.40          1.820        0.000
  WS02006110           JUNCTION        2.27          1.850        0.000
  WS02006111           JUNCTION        1.59          1.746        0.124
  WS02006112           JUNCTION        2.35          1.680        0.000
  WS02006113           JUNCTION        1.62          1.930        0.000
  WS02006115           JUNCTION        1.79          2.250        0.000
  WS02006116           JUNCTION        1.81          2.290        0.000
  WS02006228           JUNCTION        2.40          2.200        0.000
  WS02006229           JUNCTION        1.17          1.058        0.012
  WS02006230           JUNCTION        2.08          1.570        0.000
  WS02006231           JUNCTION        2.24          1.530        0.000
  WS02006232           JUNCTION        2.38          1.480        0.000
  WS02006234           JUNCTION        2.27          1.240        0.000
  WS02006235           JUNCTION        2.32          1.290        0.000
  WS02006238           JUNCTION        2.36          1.378        0.052
  WS02006239           JUNCTION        2.33          1.221        0.069
  WS02006240           JUNCTION        2.34          1.390        0.000
  WS02006242           JUNCTION        2.37          0.820        0.000
  WS02006243           JUNCTION        2.35          0.770        0.000
  WS02006245           JUNCTION        2.35          0.850        0.000
  WS02006247           JUNCTION        2.37          0.760        0.000
  WS02006248           JUNCTION        2.34          0.380        0.000
  WS02006249           JUNCTION        2.36          0.390        0.000
  WS02006251           JUNCTION        2.27          1.180        0.000
  WS02006252           JUNCTION        2.66          1.100        0.000
  WS02006253           JUNCTION        2.28          2.105        0.375
  WS02006256           JUNCTION        7.14          2.050        0.000
  WS02006280           JUNCTION        0.97          0.758        0.022
  WS02006284           JUNCTION        0.86          0.680        0.120
  WS02006287           JUNCTION        0.77          0.752        0.138
  YS02001580           JUNCTION        1.58          0.431        0.019
  YS02001583           JUNCTION        1.59          0.500        0.000
  YS02001586           JUNCTION        1.71          0.510        0.000
  YS02001590           JUNCTION        1.79          0.750        0.000
  YS02001593           JUNCTION        1.78          0.812        0.028
  YS02001596           JUNCTION        1.89          1.009        0.061
  YS02001600           JUNCTION        2.00          1.190        0.000
  YS02001601           JUNCTION        2.23          1.440        0.000
  YS02001602           JUNCTION        2.16          1.270        0.000
  YS02001605           JUNCTION        2.12          1.180        0.000
  YS02001607           JUNCTION        1.74          0.680        0.000
  YS02001610           JUNCTION        1.77          0.680        0.000
  YS02001613           JUNCTION        1.74          0.692        0.008
  YS02001616           JUNCTION        1.70          0.610        0.000
  YS02001619           JUNCTION        1.69          0.610        0.000
  YS02001622           JUNCTION        1.69          0.620        0.000
  YS02001625           JUNCTION        1.85          0.780        0.000
  YS02001629           JUNCTION        1.60          0.470        0.000
  YS02001633           JUNCTION        1.87          1.060        0.000
  YS02001641           JUNCTION        1.80          1.100        0.000
  YS02001644           JUNCTION        1.77          0.920        0.000
  YS02001647           JUNCTION        1.46          0.802        0.098
  YS02001649           JUNCTION        1.55          1.050        0.000
  YS02001652           JUNCTION        1.39          1.122        0.008
  YS02001655           JUNCTION        1.24          1.200        0.000
  YS02001658           JUNCTION        0.98          1.300        0.000
  YS02001661           JUNCTION        0.53          1.374        0.016
  YS02001664           JUNCTION        0.29          1.310        0.000
  YS02001745           JUNCTION        0.29          0.985        0.365
  YS02001748           JUNCTION        0.83          1.060        0.130
  YS02001751           JUNCTION        1.13          1.112        0.088
  YS02001754           JUNCTION        1.29          1.091        0.059
  YS02001757           JUNCTION        1.58          1.210        0.000
  YS02001759           JUNCTION        1.50          1.210        0.000
  YS02001762           JUNCTION        1.48          1.150        0.000
  YS02001765           JUNCTION        1.45          1.100        0.000
  YS02001767           JUNCTION        1.43          1.030        0.000
  YS02001770           JUNCTION        1.41          0.920        0.000
  YS02001774           JUNCTION        1.47          1.050        0.000
  YS02001779           JUNCTION        1.30          0.680        0.000
  YS02001783           JUNCTION        1.52          0.687        0.913
  YS02001784           JUNCTION        1.49          0.517        0.973
  YS02001786           JUNCTION        1.33          0.198        1.232
  YS02001882           JUNCTION        1.44          0.830        0.000
  YS02001884           JUNCTION        1.46          0.870        0.000
  YS02001887           JUNCTION        1.50          0.950        0.000
  YS02001890           JUNCTION        1.52          0.760        0.000
  YS02001895           JUNCTION        1.42          0.571        0.179
  YS02001898           JUNCTION        1.41          0.542        0.198
  YS02001901           JUNCTION        1.49          0.767        0.103
  YS02001904           JUNCTION        1.47          0.660        0.190
  YS02001907           JUNCTION        1.76          0.950        0.000
  YS02001910           JUNCTION        1.56          1.014        0.086
  YS02001915           JUNCTION        1.44          1.000        0.000
  YS02001918           JUNCTION        1.30          0.810        0.000
  YS02001920           JUNCTION        1.33          1.041        0.099
  YS02001923           JUNCTION        0.64          0.711        0.109
  YS02001926           JUNCTION        0.69          0.889        0.011
  YS02001929           JUNCTION        0.48          0.780        0.000
  YS02006553           JUNCTION        1.77          1.159        0.031
  YS02006556           JUNCTION        1.67          1.297        0.053
  YS02006558           JUNCTION        1.65          1.400        0.000
  YS02006561           JUNCTION        1.25          0.413        0.737
  YS02163301           JUNCTION        1.85          1.030        0.000
  YS02163601           JUNCTION        1.90          1.080        0.000
  YS02164001           JUNCTION        1.81          1.100        0.000
  YSB1154              JUNCTION        1.09          1.283        0.117
  YSB1171              JUNCTION        1.10          1.100        0.000
  YSB1174              JUNCTION        0.97          1.133        0.117
  YSB6556              JUNCTION        0.90          1.094        0.006
  
  
  *********************
  Node Flooding Summary
  *********************
  
  Flooding refers to all water that overflows a node, whether it ponds or not.
  --------------------------------------------------------------------------
                                                             Total   Maximum
                                 Maximum   Time of Max       Flood    Ponded
                        Hours       Rate    Occurrence      Volume     Depth
  Node                 Flooded       LPS   days hr:min    10^6 ltr    Meters
  --------------------------------------------------------------------------
  HS02004479              0.01      1.57      0  01:52       0.000     0.000
  HS02004770              0.48   1468.66      0  01:39       1.209     0.000
  HS02004777              0.01    102.07      0  01:33       0.001     0.000
  HS02004785              0.01    389.67      0  01:33       0.003     0.000
  HS02004788              0.01    274.99      0  01:33       0.002     0.000
  HS02004792              0.50   1958.67      0  01:39       1.885     0.000
  HS02004799              0.28    335.13      0  01:36       0.181     0.000
  HS02004807              0.20    532.03      0  01:39       0.248     0.000
  HS02004817              0.01     11.36      0  01:35       0.000     0.000
  HS02004824              0.11    100.65      0  01:42       0.025     0.000
  HS02004830              0.01     27.22      0  01:34       0.000     0.000
  HS02004837              0.01    224.85      0  01:34       0.000     0.000
  HS02004842              0.10    115.97      0  01:35       0.018     0.000
  HS02004856              0.01    284.05      0  01:35       0.002     0.000
  HS02004862              0.11    312.56      0  01:35       0.032     0.000
  HS02004870              0.01    569.02      0  01:35       0.003     0.000
  HS02004876              0.01     61.77      0  01:35       0.000     0.000
  HS02004901              0.59    691.17      0  01:40       0.960     0.000
  WS02004401              0.01      9.81      0  01:29       0.000     0.000
  WS02004402              0.01      4.43      0  01:29       0.000     0.000
  WS02004403              0.01      3.32      0  01:29       0.000     0.000
  WS02006109              0.57    330.19      0  01:39       0.380     0.000
  WS02006110              0.01      1.34      0  01:29       0.000     0.000
  WS02006112              0.01     33.79      0  01:29       0.000     0.000
  WS02006113              0.01      1.75      0  01:29       0.000     0.000
  WS02006115              0.01      3.92      0  01:29       0.000     0.000
  WS02006116              0.01      2.13      0  01:29       0.000     0.000
  WS02006228              0.01      0.69      0  01:35       0.000     0.000
  WS02006230              0.87    576.49      0  01:36       1.279     0.000
  WS02006231              0.01     85.65      0  01:24       0.000     0.000
  WS02006232              0.23     90.49      0  01:24       0.000     0.000
  WS02006234              0.95    128.48      0  02:07       0.310     0.000
  WS02006235              0.01     15.59      0  02:30       0.000     0.000
  WS02006240              0.01      3.90      0  03:36       0.000     0.000
  WS02006242              1.07    137.60      0  01:54       0.466     0.000
  WS02006243              0.01      2.01      0  03:36       0.000     0.000
  WS02006245              0.01      1.87      0  03:36       0.000     0.000
  WS02006247              0.01      1.59      0  03:36       0.000     0.000
  WS02006248              1.59    345.05      0  01:33       1.540     0.000
  WS02006249              2.29   1316.82      0  01:39       6.172     0.000
  WS02006251              0.01     29.99      0  01:35       0.000     0.000
  WS02006252              0.76    928.76      0  01:38       1.344     0.000
  WS02006256              1.36    438.44      0  02:35       1.279     0.000
  YS02001583              0.01     19.79      0  01:30       0.000     0.000
  YS02001586              1.42   3091.95      0  02:25       4.266     0.000
  YS02001590              0.01      3.48      0  01:30       0.000     0.000
  YS02001600              0.01      3.29      0  01:52       0.000     0.000
  YS02001601              1.64   5262.97      0  02:25       7.672     0.000
  YS02001602              1.43     62.02      0  02:49       0.308     0.000
  YS02001605              0.01      0.09      0  01:49       0.000     0.000
  YS02001607              0.01      0.08      0  01:52       0.000     0.000
  YS02001610              1.37    956.30      0  02:27       3.239     0.000
  YS02001616              0.16      1.91      0  02:09       0.000     0.000
  YS02001619              0.58   4257.11      0  02:25       3.393     0.000
  YS02001622              0.01      0.99      0  01:52       0.000     0.000
  YS02001625              1.33   1505.27      0  02:26       5.069     0.000
  YS02001629              0.60    686.87      0  02:25       0.914     0.000
  YS02001633              0.25   1959.36      0  02:25       0.812     0.000
  YS02001641              0.01      1.95      0  01:52       0.000     0.000
  YS02001644              0.86   5291.24      0  02:25       6.575     0.000
  YS02001649              0.25   2132.49      0  02:25       1.040     0.000
  YS02001655              0.12    303.26      0  02:24       0.109     0.000
  YS02001658              0.09     52.18      0  02:25       0.015     0.000
  YS02001664              0.08    625.27      0  02:25       0.101     0.000
  YS02001757              0.01     36.36      0  01:52       0.000     0.000
  YS02001759              0.09    647.50      0  02:25       0.110     0.000
  YS02001762              0.05      7.99      0  02:27       0.000     0.000
  YS02001765              0.01      5.36      0  01:52       0.000     0.000
  YS02001767              0.01      4.02      0  01:52       0.000     0.000
  YS02001770              0.44   4037.21      0  02:25       2.736     0.000
  YS02001774              0.01      4.92      0  01:52       0.000     0.000
  YS02001779              0.78    851.49      0  02:26       1.755     0.000
  YS02001882              0.01      1.53      0  02:25       0.000     0.000
  YS02001884              0.01      0.85      0  02:24       0.000     0.000
  YS02001887              0.12    916.33      0  02:25       0.209     0.000
  YS02001890              0.72   1537.07      0  02:27       1.676     0.000
  YS02001907              1.22   4670.50      0  02:26       8.398     0.000
  YS02001915              0.41   3058.68      0  02:25       2.012     0.000
  YS02001918              0.18    460.89      0  02:25       0.199     0.000
  YS02001929              0.08    249.54      0  02:25       0.038     0.000
  YS02006558              0.08    749.59      0  02:25       0.117     0.000
  YS02163301              0.01      1.48      0  01:52       0.000     0.000
  YS02163601              0.01      7.06      0  03:03       0.000     0.000
  YS02164001              0.01      4.95      0  01:52       0.000     0.000
  YSB1171                 0.38   1195.02      0  01:39       0.951     0.000
  
  
  **********************
  Storage Volume Summary
  **********************
  
  --------------------------------------------------------------------------------------------------
                         Average     Avg  Evap Exfil       Maximum     Max    Time of Max    Maximum
                          Volume    Pcnt  Pcnt  Pcnt        Volume    Pcnt     Occurrence    Outflow
  Storage Unit           1000 m3    Full  Loss  Loss       1000 m3    Full    days hr:min        LPS
  --------------------------------------------------------------------------------------------------
  CC-storage               2.462      38     0     0         5.209      81       0  02:48    2549.00
  JK-storage               0.085      29     0     0         0.213      73       0  01:44    3450.00
  XR-storage               0.941      65     0     0         1.111      77       0  08:00     380.00
  
  
  ***********************
  Outfall Loading Summary
  ***********************
  
  -----------------------------------------------------------
                         Flow       Avg       Max       Total
                         Freq      Flow      Flow      Volume
  Outfall Node           Pcnt       LPS       LPS    10^6 ltr
  -----------------------------------------------------------
  CC-1                  42.02    852.36   1024.50       5.726
  CC-2                  56.12   1007.61   1024.50       9.435
  JK-1                   9.03   1236.24   1500.00       2.089
  JK-2                  12.73   1492.93   1500.00       3.782
  WSC                   99.95    679.32   1539.23      15.184
  -----------------------------------------------------------
  System                43.97   5268.47   1539.23      36.217
  
  
  ********************
  Link Flow Summary
  ********************
  
  -----------------------------------------------------------------------------
                                 Maximum  Time of Max   Maximum    Max/    Max/
                                  |Flow|   Occurrence   |Veloc|    Full    Full
  Link                 Type          LPS  days hr:min     m/sec    Flow   Depth
  -----------------------------------------------------------------------------
  1                    CONDUIT   1539.23     0  01:44      3.72    0.54    0.52
  HS02004478WS02006287 CONDUIT   2310.04     0  01:36      2.57    0.65    1.00
  HS02004479HS02004480 CONDUIT    541.89     0  01:34      0.77    0.52    1.00
  HS02004480HS02004478 CONDUIT   2189.57     0  01:34      3.13    9.22    1.00
  HS02004770HS02004777 CONDUIT    838.09     0  01:33      1.20    1.53    1.00
  HS02004777HS02004785 CONDUIT    837.48     0  01:33      1.31    1.03    1.00
  HS02004785HS02004788 CONDUIT    614.62     0  02:08      1.34    4.63    1.00
  HS02004788HS02004792 CONDUIT    862.23     0  01:39      1.42    0.57    1.00
  HS02004792HS02004799 CONDUIT   1542.78     0  01:33      2.20    0.94    1.00
  HS02004799HS02004480 CONDUIT   1738.97     0  01:34      2.48    2.20    1.00
  HS02004802HS02004478 CONDUIT   1234.33     0  01:41      1.76    1.09    1.00
  HS02004807HS02004802 CONDUIT   1233.71     0  01:42      1.76    2.36    1.00
  HS02004817HS02004807 CONDUIT   1197.03     0  01:44      1.71    0.71    1.00
  HS02004817HS02004824 CONDUIT   1196.40     0  01:43      1.71    0.54    1.00
  HS02004824HS02004830 CONDUIT    760.93     0  01:34      1.09    1.00    1.00
  HS02004830HS02004837 CONDUIT    783.92     0  01:34      1.20    0.78    1.00
  HS02004837HS02004842 CONDUIT    994.49     0  01:34      1.42    0.59    1.00
  HS02004842HS02004848 CONDUIT    994.65     0  01:34      1.58    0.58    1.00
  HS02004848HS02004852 CONDUIT   1212.40     0  01:35      1.74    1.37    1.00
  HS02004852HS02004856 CONDUIT   1215.88     0  01:35      1.74    1.39    1.00
  HS02004856HS02004862 CONDUIT   1335.49     0  01:35      1.93    1.33    1.00
  HS02004862HS02004870 CONDUIT   1063.69     0  01:35      1.56    1.15    1.00
  HS02004870HS02004876 CONDUIT   1261.30     0  01:36      1.80    0.84    1.00
  HS02004876HS02004881 CONDUIT   1511.76     0  01:42      2.16   16.08    1.00
  HS02004881HS02006253 CONDUIT   1665.11     0  01:39      2.38    0.33    1.00
  HS02004901HS02004770 CONDUIT    265.79     0  02:01      0.38    1.00    1.00
  WS02001211WS02001212 CONDUIT    210.00     0  02:49      0.54    0.16    0.70
  WS02001212WS02001213 CONDUIT    259.61     0  01:37      1.04    0.40    0.57
  WS02001213WS02003059 CONDUIT    216.90     0  03:22      0.47    0.36    0.91
  WS02003059WS02003060 CONDUIT    224.10     0  03:22      0.66    0.15    0.82
  WS02003060WS02003069 CONDUIT   1539.64     0  01:42      2.10    0.60    0.62
  WS02003066WSF200     CONDUIT   1334.14     0  01:39      3.44    0.23    0.39
  WS02003067WS02003066 CONDUIT   1334.51     0  01:39      2.04    0.43    0.56
  WS02003069WS02003072 CONDUIT   1538.61     0  01:43      1.91    0.74    0.67
  WS02003072WS02003073 CONDUIT   1538.48     0  01:43      2.07    3.32    0.62
  WS02004138WS02004139 CONDUIT    190.82     0  00:29      2.16    0.04    0.42
  WS02004139WS02001211 CONDUIT    210.27     0  01:34      0.54    0.27    0.61
  WS02004401WS02004402 CONDUIT   1331.91     0  01:39      1.70    1.60    1.00
  WS02004402WS02004403 CONDUIT   1332.70     0  01:38      1.70    1.91    1.00
  WS02004403WS02004404 CONDUIT   1332.19     0  01:38      1.70    0.96    1.00
  WS02004404WS02004405 CONDUIT   1333.42     0  01:38      1.70   13.06    1.00
  WS02004405WS02004406 CONDUIT   1332.94     0  01:39      1.70    2.63    1.00
  WS02004406WS02004407 CONDUIT   1332.88     0  01:39      1.96    0.60    0.99
  WS02004407WS02004409 CONDUIT   1332.00     0  01:39      2.05    0.47    0.99
  WS02004409WS02004410 CONDUIT   1332.23     0  01:39      1.70    1.72    1.00
  WS02004410WS02004411 CONDUIT   1332.33     0  01:39      1.70    1.82    1.00
  WS02004411WS02004412 CONDUIT   1332.16     0  01:39      1.70    1.89    1.00
  WS02004412WS02004413 CONDUIT   1332.15     0  01:39      1.70    0.89    1.00
  WS02004413WS02003067 CONDUIT   1332.20     0  01:39      2.05    0.57    0.77
  WS02006109WS02006110 CONDUIT   1124.15     0  02:07      2.24    2.16    1.00
  WS02006110WS02006113 CONDUIT   1124.01     0  02:07      2.24    1.02    1.00
  WS02006111WS02006112 CONDUIT   1124.41     0  02:07      2.24    0.53    1.00
  WS02006112WS02006115 CONDUIT   1331.80     0  01:38      1.70    0.79    1.00
  WS02006113WS02006111 CONDUIT   1124.14     0  02:07      2.87    1.35    1.00
  WS02006115WS02006116 CONDUIT   1332.24     0  01:38      1.70    1.71    1.00
  WS02006116WS02004401 CONDUIT   1331.71     0  01:38      1.70    1.84    1.00
  WS02006228WS02006109 CONDUIT   1290.27     0  01:36      2.57    5.64    1.00
  WS02006229WS02006228 CONDUIT   1290.77     0  01:36      2.57    4.28    1.00
  WS02006230WS02006229 CONDUIT   1019.07     0  01:36      2.65   22.68    1.00
  WS02006231WS02006230 CONDUIT    532.11     0  03:35      1.38    8.07    1.00
  WS02006232WS02006231 CONDUIT    530.69     0  03:35      1.38    1.11    1.00
  WS02006234WS02006232 CONDUIT    528.98     0  03:35      1.41    1.07    1.00
  WS02006235WS02006234 CONDUIT    528.51     0  03:40      1.50    5.58    1.00
  WS02006238WS02006235 CONDUIT    533.04     0  01:23      1.46    1.19    1.00
  WS02006239WS02006238 CONDUIT    521.57     0  01:23      1.36    1.67    1.00
  WS02006240WS02006239 CONDUIT    556.61     0  01:23      1.52    1.75    1.00
  WS02006242WS02006240 CONDUIT    595.62     0  01:22      1.67    2.37    1.00
  WS02006243WS02006242 CONDUIT    589.89     0  01:22      1.54    1.26    1.00
  WS02006245WS02006243 CONDUIT    639.34     0  01:22      1.66    1.89    1.00
  WS02006247WS02006245 CONDUIT    644.62     0  01:22      1.68    5.11    1.00
  WS02006248WS02006247 CONDUIT    645.12     0  01:22      1.73    1.40    1.00
  WS02006249WS02006248 CONDUIT    648.57     0  01:22      1.78    3.55    1.00
  WS02006251WS02006249 CONDUIT   1378.90     0  01:38      3.58    3.98    1.00
  WS02006252WS02006251 CONDUIT    611.62     0  01:20     25.28    2.24    1.00
  WS02006253WS02006251 CONDUIT   1707.51     0  01:38      4.44    5.12    1.00
  WS02006256WS02006235 CONDUIT    288.93     0  00:00      4.23    3.06    1.00
  WS02006280WS02006229 CONDUIT   2310.26     0  01:36      3.89    0.49    1.00
  WS02006284WS02006280 CONDUIT   2309.27     0  01:36      3.02    0.97    1.00
  WS02006287WS02006284 CONDUIT   2308.76     0  01:36      2.94    1.07    1.00
  WSF200WS02003060     CONDUIT   1337.05     0  01:40      2.69    0.30    0.51
  YS02001580YS02001583 CONDUIT     59.88     0  01:29      0.47    0.23    1.00
  YS02001583YS02001586 CONDUIT     91.11     0  01:29      0.38    0.14    1.00
  YS02001586YS02001590 CONDUIT    326.30     0  01:52      1.29    0.57    1.00
  YS02001590YS02001593 CONDUIT    324.87     0  01:52      1.16    2.04    1.00
  YS02001593YS02001596 CONDUIT    318.66     0  01:52      1.85    0.50    1.00
  YS02001596YS02001600 CONDUIT    318.77     0  01:52      1.36    0.62    1.00
  YS02001600YS02001601 CONDUIT    318.83     0  01:52      1.13    0.55    1.00
  YS02001601YS02001602 CONDUIT    502.29     0  01:29      1.78    1.81    1.00
  YS02001602YS02001605 CONDUIT    502.58     0  01:29      1.78   10.64    1.00
  YS02001605YS02001607 CONDUIT    502.91     0  01:29      1.78    2.76    1.00
  YS02001607YS02001610 CONDUIT    499.92     0  01:29      0.64    0.48    1.00
  YS02001610YS02001613 CONDUIT    620.83     0  02:27      0.79    0.72    1.00
  YS02001613YS02001616 CONDUIT    620.63     0  02:27      0.79    0.53    1.00
  YS02001616YS02001619 CONDUIT    620.51     0  02:27      0.79    1.08    1.00
  YS02001619YS02001622 CONDUIT   1053.97     0  02:28      1.38    1.55    1.00
  YS02001622YS02001625 CONDUIT   1053.72     0  02:26      1.34    0.56    1.00
  YS02001625YS02001629 CONDUIT    930.86     0  01:40      1.19    0.44    1.00
  YS02001629YS02163301 CONDUIT   1139.07     0  02:25      1.45    1.40    1.00
  YS02001633YS02163601 CONDUIT   1330.78     0  01:40      1.69    1.40    1.00
  YS02001641YS02001644 CONDUIT   1329.34     0  01:40      1.69    4.30    1.00
  YS02001644YS02001647 CONDUIT   1681.65     0  01:41      2.17    0.99    1.00
  YS02001647YS02001649 CONDUIT   1678.81     0  01:41      2.30    0.89    1.00
  YS02001649YS02001757 CONDUIT   1938.42     0  01:42      2.49    1.18    1.00
  YS02001652YS02001649 CONDUIT   2429.37     0  02:24      3.09    1.20    1.00
  YS02001655YS02001652 CONDUIT   2429.33     0  02:26      3.09    1.18    1.00
  YS02001658YS02001655 CONDUIT   2731.29     0  02:27      3.48    1.16    1.00
  YS02001661YS02001658 CONDUIT   2783.76     0  02:25      3.54    1.09    1.00
  YS02001664YS02001661 CONDUIT   2783.85     0  02:25      3.54    0.87    1.00
  YS02001745YS02001748 CONDUIT   2059.38     0  02:25      2.62    0.79    1.00
  YS02001748YS02001751 CONDUIT   2060.55     0  02:25      2.62    1.04    1.00
  YS02001751YS02001754 CONDUIT   2065.49     0  02:25      2.63    1.00    1.00
  YS02001754YS02001757 CONDUIT   2069.32     0  02:25      2.63    0.83    1.00
  YS02001757CaochengTiaoxuchi CONDUIT   3146.54     0  01:58      4.01    1.36    1.00
  YS02001759YS02001757 CONDUIT   1612.28     0  02:26      2.05    1.15    1.00
  YS02001762YS02001759 CONDUIT    742.82     0  01:58      0.95    0.86    1.00
  YS02001765YS02001762 CONDUIT    742.28     0  01:58      0.95    0.70    1.00
  YS02001767YS02001765 CONDUIT    741.66     0  01:58      0.94    0.93    1.00
  YS02001770YS02001767 CONDUIT    741.68     0  01:58      0.94    2.94    1.00
  YS02001774YS02001770 CONDUIT    852.11     0  02:24      1.08    0.54    1.00
  YS02001779YS02001774 CONDUIT    851.78     0  02:26      1.08    0.43    1.00
  YS02001783YS02001784 CONDUIT   1321.42     0  02:26      2.63    1.82    1.00
  YS02001784YS02001785 CONDUIT   1322.57     0  02:23      2.63    3.08    1.00
  YS02001786YS02001788 CONDUIT   1322.38     0  02:24      2.74    2.55    0.94
  YS02001788YS02001790 CONDUIT   1347.48     0  02:26      2.93    0.99    0.92
  YS02001790YS02001791 CONDUIT   1418.31     0  02:25      3.58    1.54    0.76
  YS02001791YS02001793 CONDUIT   1446.68     0  02:26      6.92    0.62    0.52
  YS02001793JiankangQianchi CONDUIT   1437.75     0  02:27      2.69    0.11    0.69
  YS02001882YS02001884 CONDUIT     36.39     0  01:29      0.27    0.04    1.00
  YS02001884YS02001887 CONDUIT     49.14     0  01:16      0.21    0.07    1.00
  YS02001887YS02001890 CONDUIT   2052.03     0  02:27      2.61    3.51    1.00
  YS02001890YS02001895 CONDUIT    518.51     0  02:25      0.66    0.24    1.00
  YS02001895YS02001898 CONDUIT    518.90     0  02:25      0.66    0.90    1.00
  YS02001898YS02001901 CONDUIT    518.51     0  02:03      0.66    0.33    1.00
  YS02001901YS02001904 CONDUIT    518.31     0  02:25      0.66    0.80    1.00
  YS02001904YS02001907 CONDUIT    518.74     0  02:25      0.66    0.18    1.00
  YS02001907YS02006553 CONDUIT   2161.36     0  02:26      2.40    2.54    1.00
  YS02001910YS02001907 CONDUIT   1993.05     0  02:25      2.54    1.12    1.00
  YS02001915YS02001910 CONDUIT   1993.15     0  02:14      2.54    0.99    1.00
  YS02001918YS02001915 CONDUIT   1221.69     0  02:30      1.56    0.67    1.00
  YS02001920YS02001918 CONDUIT   1682.75     0  02:25      2.14    1.63    1.00
  YS02001923YS02001920 CONDUIT   1679.10     0  02:27      2.14    0.75    1.00
  YS02001926YS02001923 CONDUIT   1679.11     0  02:25      2.14    2.40    1.00
  YS02001929YS02001926 CONDUIT   1679.39     0  02:25      2.14    0.80    1.00
  YS02006553YS02006556 CONDUIT   2160.86     0  02:26      2.75    1.85    1.00
  YS02006556YS02006558 CONDUIT   2161.63     0  02:25      2.75    1.71    1.00
  YS02006558YS02006561 CONDUIT   1321.83     0  02:25      4.67    2.92    1.00
  YS02006561YS02001783 CONDUIT   1321.83     0  02:25      2.63    0.68    1.00
  YS02163301YS02001633 CONDUIT   1138.89     0  02:23      1.45    1.07    1.00
  YS02163601YS02164001 CONDUIT   1330.74     0  01:40      1.69    1.18    1.00
  YS02164001YS02001641 CONDUIT   1329.19     0  01:40      1.69    1.81    1.00
  YSB1154YSB6556       CONDUIT    516.16     0  01:39      1.34    0.93    1.00
  YSB1171HS02004479    CONDUIT    542.93     0  01:35      1.08    0.36    1.00
  YSB1174YSB1171       CONDUIT    460.06     0  01:38      1.20    0.70    1.00
  YSB6556YSB1171       CONDUIT    516.63     0  01:39      1.34    0.53    1.00
  CC-R1                PUMP      1024.50     0  00:05              1.50
  CC-R2                PUMP      1024.50     0  00:05              1.50
  CC-S1                PUMP       300.00     0  01:10              1.50
  CC-S2                PUMP       300.00     0  00:05              1.50
  JK-R1                PUMP      1500.00     0  02:15              1.50
  JK-R2                PUMP      1500.00     0  01:20              1.50
  JK-S                 PUMP       450.00     0  00:20              1.50
  XR-1                 PUMP        95.00     0  00:00              1.00
  XR-2                 PUMP        95.00     0  00:00              1.00
  XR-3                 PUMP        95.00     0  00:00              1.00
  XR-4                 PUMP        95.00     0  00:00              1.00
  
  
  ***************************
  Flow Classification Summary
  ***************************
  
  -------------------------------------------------------------------------------------
                      Adjusted    ---------- Fraction of Time in Flow Class ---------- 
                       /Actual         Up    Down  Sub   Sup   Up    Down  Norm  Inlet 
  Conduit               Length    Dry  Dry   Dry   Crit  Crit  Crit  Crit  Ltd   Ctrl  
  -------------------------------------------------------------------------------------
  1                       1.00   0.00  0.00  0.00  0.00  1.00  0.00  0.00  0.42  0.00
  HS02004478WS02006287    1.00   0.11  0.00  0.00  0.63  0.27  0.00  0.00  0.59  0.00
  HS02004479HS02004480    1.00   0.05  0.00  0.00  0.95  0.00  0.00  0.00  0.11  0.00
  HS02004480HS02004478    1.00   0.10  0.00  0.00  0.54  0.00  0.00  0.37  0.00  0.00
  HS02004770HS02004777    1.00   0.00  0.09  0.00  0.91  0.00  0.00  0.00  0.02  0.00
  HS02004777HS02004785    1.00   0.00  0.00  0.00  1.00  0.00  0.00  0.00  0.11  0.00
  HS02004785HS02004788    1.00   0.00  0.00  0.00  1.00  0.00  0.00  0.00  0.00  0.00
  HS02004788HS02004792    1.00   0.00  0.00  0.00  0.99  0.01  0.00  0.00  0.88  0.00
  HS02004792HS02004799    1.00   0.00  0.00  0.00  0.98  0.02  0.00  0.00  0.83  0.00
  HS02004799HS02004480    1.00   0.00  0.05  0.00  0.89  0.00  0.05  0.00  0.00  0.00
  HS02004802HS02004478    1.00   0.10  0.00  0.00  0.90  0.00  0.00  0.00  0.02  0.00
  HS02004807HS02004802    1.00   0.09  0.00  0.00  0.90  0.00  0.00  0.01  0.00  0.00
  HS02004817HS02004807    1.00   0.00  0.09  0.00  0.91  0.00  0.00  0.00  0.01  0.00
  HS02004817HS02004824    1.00   0.00  0.00  0.00  1.00  0.00  0.00  0.00  0.79  0.00
  HS02004824HS02004830    1.00   0.00  0.00  0.00  1.00  0.00  0.00  0.00  0.00  0.00
  HS02004830HS02004837    1.00   0.00  0.00  0.00  1.00  0.00  0.00  0.00  0.85  0.00
  HS02004837HS02004842    1.00   0.00  0.00  0.00  1.00  0.00  0.00  0.00  0.11  0.00
  HS02004842HS02004848    1.00   0.00  0.09  0.00  0.91  0.00  0.00  0.00  0.55  0.00
  HS02004848HS02004852    1.00   0.09  0.00  0.00  0.91  0.00  0.00  0.00  0.70  0.00
  HS02004852HS02004856    1.00   0.09  0.00  0.00  0.90  0.00  0.00  0.00  0.64  0.00
  HS02004856HS02004862    1.00   0.00  0.11  0.00  0.89  0.00  0.00  0.00  0.72  0.00
  HS02004862HS02004870    1.00   0.00  0.00  0.00  1.00  0.00  0.00  0.00  0.02  0.00
  HS02004870HS02004876    1.00   0.00  0.00  0.00  0.99  0.01  0.00  0.00  0.84  0.00
  HS02004876HS02004881    1.00   0.04  0.00  0.00  0.77  0.19  0.00  0.00  0.00  0.00
  HS02004881HS02006253    1.00   0.03  0.03  0.00  0.51  0.00  0.00  0.42  0.19  0.00
  HS02004901HS02004770    1.00   0.09  0.00  0.00  0.91  0.00  0.00  0.00  0.00  0.00
  WS02001211WS02001212    1.00   0.00  0.04  0.00  0.96  0.00  0.00  0.00  0.00  0.00
  WS02001212WS02001213    1.00   0.04  0.00  0.00  0.52  0.00  0.44  0.00  0.00  0.00
  WS02001213WS02003059    1.00   0.00  0.00  0.00  0.99  0.00  0.00  0.00  0.00  0.00
  WS02003059WS02003060    1.00   0.00  0.00  0.00  1.00  0.00  0.00  0.00  0.03  0.00
  WS02003060WS02003069    1.00   0.00  0.00  0.00  0.99  0.01  0.00  0.00  0.49  0.00
  WS02003066WSF200        1.00   0.07  0.00  0.00  0.00  0.93  0.00  0.00  0.63  0.00
  WS02003067WS02003066    1.00   0.07  0.00  0.00  0.93  0.00  0.00  0.00  0.00  0.00
  WS02003069WS02003072    1.00   0.00  0.00  0.00  1.00  0.00  0.00  0.00  0.65  0.00
  WS02003072WS02003073    1.00   0.00  0.00  0.00  0.00  0.00  0.00  1.00  0.00  0.00
  WS02004138WS02004139    1.00   0.00  0.01  0.00  0.96  0.01  0.00  0.03  0.98  0.00
  WS02004139WS02001211    1.00   0.00  0.00  0.00  0.99  0.00  0.00  0.00  0.00  0.00
  WS02004401WS02004402    1.00   0.04  0.00  0.00  0.96  0.00  0.00  0.00  0.00  0.00
  WS02004402WS02004403    1.00   0.04  0.00  0.00  0.96  0.00  0.00  0.00  0.00  0.00
  WS02004403WS02004404    1.00   0.00  0.05  0.00  0.95  0.00  0.00  0.00  0.00  0.00
  WS02004404WS02004405    1.00   0.00  0.00  0.00  1.00  0.00  0.00  0.00  0.01  0.00
  WS02004405WS02004406    1.00   0.00  0.00  0.00  1.00  0.00  0.00  0.00  0.00  0.00
  WS02004406WS02004407    1.00   0.00  0.05  0.00  0.94  0.00  0.00  0.00  0.00  0.00
  WS02004407WS02004409    1.00   0.06  0.00  0.00  0.93  0.02  0.00  0.00  0.79  0.00
  WS02004409WS02004410    1.00   0.06  0.00  0.00  0.94  0.00  0.00  0.00  0.00  0.00
  WS02004410WS02004411    1.00   0.06  0.00  0.00  0.94  0.00  0.00  0.00  0.00  0.00
  WS02004411WS02004412    1.00   0.06  0.00  0.00  0.94  0.00  0.00  0.00  0.00  0.00
  WS02004412WS02004413    1.00   0.06  0.00  0.00  0.94  0.00  0.00  0.00  0.01  0.00
  WS02004413WS02003067    1.00   0.06  0.01  0.00  0.00  0.00  0.93  0.00  0.00  0.00
  WS02006109WS02006110    1.00   0.00  0.01  0.00  0.97  0.00  0.03  0.00  0.00  0.00
  WS02006110WS02006113    1.00   0.01  0.03  0.00  0.96  0.00  0.00  0.00  0.00  0.00
  WS02006111WS02006112    1.00   0.04  0.00  0.00  0.96  0.00  0.00  0.00  0.72  0.00
  WS02006112WS02006115    1.00   0.04  0.00  0.00  0.96  0.00  0.00  0.00  0.00  0.00
  WS02006113WS02006111    1.00   0.04  0.00  0.00  0.33  0.63  0.00  0.00  0.06  0.00
  WS02006115WS02006116    1.00   0.04  0.00  0.00  0.95  0.00  0.00  0.01  0.00  0.00
  WS02006116WS02004401    1.00   0.04  0.00  0.00  0.96  0.00  0.00  0.00  0.00  0.00
  WS02006228WS02006109    1.00   0.00  0.00  0.00  1.00  0.00  0.00  0.00  0.00  0.00
  WS02006229WS02006228    1.00   0.00  0.00  0.00  0.99  0.00  0.00  0.01  0.00  0.00
  WS02006230WS02006229    1.00   0.00  0.00  0.00  0.97  0.00  0.00  0.03  0.03  0.00
  WS02006231WS02006230    1.00   0.00  0.00  0.00  0.52  0.00  0.48  0.00  0.00  0.00
  WS02006232WS02006231    1.00   0.00  0.00  0.00  0.99  0.00  0.01  0.00  0.00  0.00
  WS02006234WS02006232    1.00   0.00  0.00  0.00  1.00  0.00  0.00  0.00  0.05  0.00
  WS02006235WS02006234    1.00   0.00  0.00  0.00  0.88  0.00  0.12  0.00  0.00  0.00
  WS02006238WS02006235    1.00   0.00  0.00  0.00  1.00  0.00  0.00  0.00  0.00  0.00
  WS02006239WS02006238    1.00   0.00  0.00  0.00  1.00  0.00  0.00  0.00  0.15  0.00
  WS02006240WS02006239    1.00   0.00  0.00  0.00  0.76  0.00  0.00  0.24  0.01  0.00
  WS02006242WS02006240    1.00   0.00  0.00  0.00  0.99  0.00  0.01  0.00  0.00  0.00
  WS02006243WS02006242    1.00   0.00  0.00  0.00  0.99  0.00  0.00  0.01  0.62  0.00
  WS02006245WS02006243    1.00   0.00  0.00  0.00  0.90  0.00  0.00  0.10  0.00  0.00
  WS02006247WS02006245    1.00   0.00  0.00  0.00  0.98  0.00  0.00  0.02  0.00  0.00
  WS02006248WS02006247    1.00   0.00  0.00  0.00  0.99  0.00  0.00  0.01  0.52  0.00
  WS02006249WS02006248    1.00   0.00  0.00  0.00  0.66  0.00  0.34  0.00  0.00  0.00
  WS02006251WS02006249    1.00   0.00  0.00  0.00  0.99  0.01  0.00  0.00  0.55  0.00
  WS02006252WS02006251    1.00   0.19  0.20  0.00  0.44  0.00  0.17  0.00  0.00  0.00
  WS02006253WS02006251    1.00   0.00  0.00  0.00  0.98  0.00  0.02  0.00  0.01  0.00
  WS02006256WS02006235    1.00   0.00  0.00  0.00  0.98  0.02  0.00  0.00  0.00  0.00
  WS02006280WS02006229    1.00   0.10  0.00  0.00  0.28  0.05  0.00  0.57  0.01  0.00
  WS02006284WS02006280    1.00   0.10  0.00  0.00  0.18  0.02  0.00  0.69  0.00  0.00
  WS02006287WS02006284    1.00   0.09  0.02  0.00  0.47  0.43  0.00  0.00  0.65  0.00
  WSF200WS02003060        1.00   0.00  0.07  0.00  0.44  0.49  0.00  0.00  0.60  0.00
  YS02001580YS02001583    1.00   0.15  0.34  0.00  0.51  0.00  0.00  0.00  0.60  0.00
  YS02001583YS02001586    1.00   0.24  0.19  0.00  0.57  0.00  0.00  0.00  0.60  0.00
  YS02001586YS02001590    1.00   0.09  0.00  0.00  0.70  0.02  0.00  0.18  0.32  0.00
  YS02001590YS02001593    1.00   0.09  0.00  0.00  0.35  0.00  0.55  0.00  0.00  0.00
  YS02001593YS02001596    1.00   0.10  0.00  0.00  0.37  0.01  0.00  0.52  0.01  0.00
  YS02001596YS02001600    1.00   0.10  0.00  0.00  0.43  0.02  0.00  0.45  0.02  0.00
  YS02001600YS02001601    1.00   0.09  0.00  0.00  0.90  0.00  0.00  0.00  0.53  0.00
  YS02001601YS02001602    1.00   0.09  0.00  0.00  0.90  0.00  0.00  0.00  0.00  0.00
  YS02001602YS02001605    1.00   0.10  0.00  0.00  0.90  0.00  0.00  0.00  0.00  0.00
  YS02001605YS02001607    1.00   0.10  0.00  0.00  0.90  0.00  0.00  0.00  0.00  0.00
  YS02001607YS02001610    1.00   0.10  0.00  0.00  0.90  0.00  0.00  0.00  0.00  0.00
  YS02001610YS02001613    1.00   0.09  0.00  0.00  0.91  0.00  0.00  0.00  0.00  0.00
  YS02001613YS02001616    1.00   0.09  0.00  0.00  0.91  0.00  0.00  0.00  0.00  0.00
  YS02001616YS02001619    1.00   0.09  0.00  0.00  0.91  0.00  0.00  0.00  0.00  0.00
  YS02001619YS02001622    1.00   0.09  0.00  0.00  0.90  0.00  0.00  0.00  0.24  0.00
  YS02001622YS02001625    1.00   0.09  0.00  0.00  0.90  0.00  0.00  0.00  0.01  0.00
  YS02001625YS02001629    1.00   0.09  0.01  0.00  0.39  0.00  0.50  0.00  0.00  0.00
  YS02001629YS02163301    1.00   0.10  0.00  0.00  0.90  0.00  0.00  0.00  0.00  0.00
  YS02001633YS02163601    1.00   0.00  0.01  0.00  0.99  0.00  0.00  0.00  0.13  0.00
  YS02001641YS02001644    1.00   0.00  0.00  0.00  1.00  0.00  0.00  0.00  0.00  0.00
  YS02001644YS02001647    1.00   0.00  0.10  0.00  0.90  0.00  0.00  0.00  0.00  0.00
  YS02001647YS02001649    1.00   0.00  0.10  0.00  0.59  0.31  0.00  0.00  0.52  0.00
  YS02001649YS02001757    1.00   0.00  0.00  0.00  0.68  0.32  0.00  0.00  0.41  0.00
  YS02001652YS02001649    1.00   0.00  0.00  0.00  0.99  0.01  0.00  0.00  0.66  0.00
  YS02001655YS02001652    1.00   0.00  0.00  0.00  0.44  0.01  0.00  0.55  0.05  0.00
  YS02001658YS02001655    1.00   0.00  0.10  0.00  0.68  0.22  0.00  0.00  0.60  0.00
  YS02001661YS02001658    1.00   0.10  0.00  0.00  0.51  0.40  0.00  0.00  0.62  0.00
  YS02001664YS02001661    1.00   0.09  0.00  0.00  0.78  0.13  0.00  0.00  0.77  0.00
  YS02001745YS02001748    1.00   0.00  0.00  0.00  0.28  0.00  0.00  0.72  0.04  0.00
  YS02001748YS02001751    1.00   0.00  0.00  0.00  0.85  0.15  0.00  0.00  0.71  0.00
  YS02001751YS02001754    1.00   0.00  0.00  0.00  0.39  0.01  0.00  0.60  0.03  0.00
  YS02001754YS02001757    1.00   0.00  0.00  0.00  1.00  0.00  0.00  0.00  0.73  0.00
  YS02001757CaochengTiaoxuchi    1.00   0.00  0.00  0.00  0.91  0.09  0.00  0.00  0.73  0.00
  YS02001759YS02001757    1.00   0.00  0.00  0.00  0.99  0.01  0.00  0.00  0.55  0.00
  YS02001762YS02001759    1.00   0.00  0.00  0.00  1.00  0.00  0.00  0.00  0.03  0.00
  YS02001765YS02001762    1.00   0.00  0.00  0.00  1.00  0.00  0.00  0.00  0.67  0.00
  YS02001767YS02001765    1.00   0.00  0.00  0.00  1.00  0.00  0.00  0.00  0.00  0.00
  YS02001770YS02001767    1.00   0.00  0.00  0.00  1.00  0.00  0.00  0.00  0.00  0.00
  YS02001774YS02001770    1.00   0.00  0.09  0.00  0.82  0.00  0.08  0.00  0.01  0.00
  YS02001779YS02001774    1.00   0.00  0.00  0.00  1.00  0.00  0.00  0.00  0.70  0.00
  YS02001783YS02001784    1.00   0.00  0.10  0.00  0.90  0.00  0.00  0.00  0.53  0.00
  YS02001784YS02001785    1.00   0.00  0.00  0.00  1.00  0.00  0.00  0.00  0.14  0.00
  YS02001786YS02001788    1.00   0.00  0.00  0.00  0.72  0.28  0.00  0.00  0.00  0.00
  YS02001788YS02001790    1.00   0.00  0.00  0.00  0.21  0.79  0.00  0.00  0.74  0.00
  YS02001790YS02001791    1.00   0.00  0.00  0.00  0.03  0.97  0.00  0.00  0.11  0.00
  YS02001791YS02001793    1.00   0.00  0.00  0.00  0.00  1.00  0.00  0.00  0.02  0.00
  YS02001793JiankangQianchi    1.00   0.00  0.00  0.00  0.82  0.18  0.00  0.00  0.93  0.00
  YS02001882YS02001884    1.00   0.10  0.00  0.00  0.90  0.00  0.00  0.00  0.00  0.00
  YS02001884YS02001887    1.00   0.07  0.02  0.00  0.91  0.00  0.00  0.00  0.00  0.00
  YS02001887YS02001890    1.00   0.00  0.00  0.00  0.95  0.00  0.05  0.00  0.00  0.00
  YS02001890YS02001895    1.00   0.00  0.10  0.00  0.90  0.00  0.00  0.00  0.00  0.00
  YS02001895YS02001898    1.00   0.10  0.00  0.00  0.89  0.00  0.00  0.00  0.00  0.00
  YS02001898YS02001901    1.00   0.10  0.00  0.00  0.90  0.00  0.00  0.00  0.00  0.00
  YS02001901YS02001904    1.00   0.10  0.00  0.00  0.90  0.00  0.00  0.00  0.00  0.00
  YS02001904YS02001907    1.00   0.00  0.10  0.00  0.90  0.00  0.00  0.00  0.00  0.00
  YS02001907YS02006553    1.00   0.00  0.04  0.00  0.96  0.00  0.00  0.00  0.00  0.00
  YS02001910YS02001907    1.00   0.00  0.00  0.00  0.95  0.00  0.00  0.04  0.11  0.00
  YS02001915YS02001910    1.00   0.00  0.00  0.00  0.97  0.03  0.00  0.00  0.11  0.00
  YS02001918YS02001915    1.00   0.00  0.00  0.00  0.96  0.04  0.00  0.00  0.64  0.00
  YS02001920YS02001918    1.00   0.00  0.00  0.00  1.00  0.00  0.00  0.00  0.00  0.00
  YS02001923YS02001920    1.00   0.00  0.00  0.00  1.00  0.00  0.00  0.00  0.80  0.00
  YS02001926YS02001923    1.00   0.00  0.07  0.00  0.25  0.00  0.67  0.00  0.00  0.00
  YS02001929YS02001926    1.00   0.00  0.09  0.00  0.91  0.00  0.00  0.00  0.70  0.00
  YS02006553YS02006556    1.00   0.02  0.00  0.00  0.98  0.00  0.00  0.00  0.03  0.00
  YS02006556YS02006558    1.00   0.00  0.00  0.00  1.00  0.00  0.00  0.00  0.00  0.00
  YS02006558YS02006561    1.00   0.10  0.00  0.00  0.24  0.65  0.00  0.00  0.14  0.00
  YS02006561YS02001783    1.00   0.10  0.00  0.00  0.31  0.59  0.00  0.00  0.61  0.00
  YS02163301YS02001633    1.00   0.00  0.10  0.00  0.90  0.00  0.00  0.00  0.00  0.00
  YS02163601YS02164001    1.00   0.00  0.08  0.00  0.92  0.00  0.00  0.00  0.00  0.00
  YS02164001YS02001641    1.00   0.01  0.07  0.00  0.92  0.00  0.00  0.00  0.05  0.00
  YSB1154YSB6556          1.00   0.09  0.00  0.00  0.91  0.00  0.00  0.00  0.01  0.00
  YSB1171HS02004479       1.00   0.05  0.00  0.00  0.94  0.00  0.00  0.01  0.10  0.00
  YSB1174YSB1171          1.00   0.06  0.02  0.00  0.92  0.00  0.00  0.00  0.00  0.00
  YSB6556YSB1171          1.00   0.06  0.04  0.00  0.91  0.00  0.00  0.00  0.00  0.00
  
  
  *************************
  Conduit Surcharge Summary
  *************************
  
  ----------------------------------------------------------------------------
                                                           Hours        Hours 
                         --------- Hours Full --------   Above Full   Capacity
  Conduit                Both Ends  Upstream  Dnstream   Normal Flow   Limited
  ----------------------------------------------------------------------------
  HS02004478WS02006287        0.65      0.65      0.84      0.01         0.01
  HS02004479HS02004480        0.85      0.85      0.86      0.01         0.01
  HS02004480HS02004478        0.77      0.84      0.77      1.84         0.77
  HS02004770HS02004777        0.74      0.74      0.75      0.11         0.09
  HS02004777HS02004785        0.69      0.69      0.75      0.01         0.01
  HS02004785HS02004788        0.68      0.69      0.68      1.68         0.59
  HS02004788HS02004792        0.68      0.68      0.81      0.01         0.01
  HS02004792HS02004799        0.81      0.81      0.93      0.01         0.01
  HS02004799HS02004480        0.84      0.84      0.93      1.06         0.01
  HS02004802HS02004478        0.78      0.78      0.85      0.20         0.01
  HS02004807HS02004802        0.83      0.83      0.85      0.37         0.36
  HS02004817HS02004807        0.83      0.83      1.54      0.01         0.01
  HS02004817HS02004824        0.68      0.68      1.54      0.01         0.01
  HS02004824HS02004830        0.65      0.65      0.68      0.01         0.01
  HS02004830HS02004837        0.60      0.60      0.65      0.01         0.01
  HS02004837HS02004842        0.60      0.60      0.75      0.01         0.01
  HS02004842HS02004848        0.57      0.57      0.75      0.01         0.01
  HS02004848HS02004852        0.57      0.57      0.60      0.02         0.01
  HS02004852HS02004856        0.60      0.60      0.62      0.01         0.01
  HS02004856HS02004862        0.58      0.59      0.63      0.01         0.01
  HS02004862HS02004870        0.63      0.63      0.65      0.25         0.26
  HS02004870HS02004876        0.65      0.65      0.76      0.01         0.01
  HS02004876HS02004881        0.74      0.76      0.74      1.71         0.74
  HS02004881HS02006253        0.74      0.74      2.27      0.01         0.01
  HS02004901HS02004770        0.74      0.74      0.75      0.05         0.01
  WS02003072WS02003073        0.01      0.01      0.01      2.58         0.01
  WS02004401WS02004402        1.86      1.86      1.87      1.70         1.67
  WS02004402WS02004403        1.87      1.87      1.87      1.87         1.85
  WS02004403WS02004404        1.87      1.87      2.05      0.01         0.04
  WS02004404WS02004405        2.00      2.05      2.00      3.03         2.00
  WS02004405WS02004406        1.97      2.00      1.97      2.29         1.96
  WS02004406WS02004407        0.01      0.01      1.97      0.01         0.01
  WS02004407WS02004409        0.01      0.01      1.27      0.01         0.01
  WS02004409WS02004410        1.19      1.27      1.19      1.78         1.19
  WS02004410WS02004411        1.07      1.19      1.07      1.84         1.07
  WS02004411WS02004412        0.97      1.07      0.97      1.86         0.97
  WS02004412WS02004413        0.97      0.97      1.63      0.01         0.01
  WS02004413WS02003067        0.01      0.01      1.63      0.01         0.01
  WS02006109WS02006110        2.27      2.27      2.42      2.28         0.01
  WS02006110WS02006113        1.62      1.62      2.41      0.37         0.01
  WS02006111WS02006112        1.59      1.59      2.51      0.01         0.01
  WS02006112WS02006115        1.79      1.79      2.35      0.01         0.01
  WS02006113WS02006111        1.61      1.62      1.61      1.72         1.60
  WS02006115WS02006116        1.81      1.81      1.81      1.80         1.76
  WS02006116WS02004401        1.85      1.85      1.86      1.87         1.84
  WS02006228WS02006109        2.40      2.42      2.40      2.58         2.40
  WS02006229WS02006228        2.40      2.40      2.40      2.48         2.40
  WS02006230WS02006229        2.43      2.45      2.44      3.37         1.17
  WS02006231WS02006230        2.08      2.08      2.27      2.85         1.23
  WS02006232WS02006231        2.24      2.24      2.37      0.04         0.19
  WS02006234WS02006232        2.31      2.31      2.37      0.03         0.05
  WS02006235WS02006234        2.27      2.27      2.32      2.62         1.23
  WS02006238WS02006235        2.34      2.34      2.37      0.02         0.47
  WS02006239WS02006238        2.36      2.37      2.36      1.49         0.41
  WS02006240WS02006239        2.33      2.35      2.33      1.49         0.38
  WS02006242WS02006240        2.34      2.34      2.39      1.77         1.10
  WS02006243WS02006242        2.36      2.36      2.37      0.03         0.05
  WS02006245WS02006243        2.35      2.35      2.35      0.49         0.39
  WS02006247WS02006245        2.35      2.37      2.35      2.24         0.83
  WS02006248WS02006247        2.35      2.35      2.36      0.05         0.07
  WS02006249WS02006248        2.34      2.34      2.36      0.88         0.01
  WS02006251WS02006249        2.36      2.37      2.36      2.40         2.30
  WS02006252WS02006251        2.44      2.46      2.64      2.28         0.14
  WS02006253WS02006251        2.37      2.37      2.39      0.98         0.04
  WS02006256WS02006235        2.78      2.84      7.11      0.79         0.01
  WS02006280WS02006229        0.99      0.99      1.17      0.01         0.01
  WS02006284WS02006280        0.86      0.86      0.97      0.01         0.01
  WS02006287WS02006284        0.77      0.77      0.88      0.41         0.41
  YS02001580YS02001583        1.58      1.58      1.63      0.01         0.01
  YS02001583YS02001586        1.59      1.59      1.71      0.01         0.01
  YS02001586YS02001590        1.72      1.72      1.79      0.01         0.01
  YS02001590YS02001593        1.78      1.78      1.81      1.82         0.01
  YS02001593YS02001596        1.80      1.80      1.89      0.01         0.01
  YS02001596YS02001600        1.94      1.94      2.00      0.01         0.01
  YS02001600YS02001601        2.04      2.04      2.23      0.01         0.01
  YS02001601YS02001602        2.16      2.16      2.27      2.02         0.01
  YS02001602YS02001605        2.12      2.12      2.16      2.91         0.01
  YS02001605YS02001607        2.09      2.12      2.09      2.20         2.09
  YS02001607YS02001610        1.74      1.74      1.77      0.01         0.01
  YS02001610YS02001613        1.74      1.74      1.77      0.01         0.01
  YS02001613YS02001616        1.70      1.70      1.74      0.01         0.01
  YS02001616YS02001619        1.69      1.69      1.70      0.59         0.46
  YS02001619YS02001622        1.69      1.69      1.69      1.79         1.66
  YS02001622YS02001625        1.69      1.69      1.85      0.01         0.01
  YS02001625YS02001629        1.60      1.60      1.85      0.01         0.01
  YS02001629YS02163301        1.84      1.84      1.85      0.67         0.31
  YS02001633YS02163601        1.87      1.87      1.90      0.47         0.48
  YS02001641YS02001644        1.77      1.80      1.77      2.26         1.72
  YS02001644YS02001647        1.46      1.46      1.77      0.01         0.01
  YS02001647YS02001649        1.46      1.46      1.55      0.01         0.01
  YS02001649YS02001757        1.54      1.55      1.58      0.41         0.24
  YS02001652YS02001649        1.40      1.40      1.55      0.18         0.17
  YS02001655YS02001652        1.24      1.24      1.39      0.17         0.17
  YS02001658YS02001655        0.98      0.98      1.24      0.13         0.13
  YS02001661YS02001658        0.53      0.53      0.98      0.10         0.10
  YS02001664YS02001661        0.29      0.29      0.62      0.01         0.01
  YS02001745YS02001748        0.29      0.29      0.83      0.01         0.01
  YS02001748YS02001751        0.90      0.90      1.13      0.03         0.03
  YS02001751YS02001754        1.13      1.13      1.29      0.01         0.01
  YS02001754YS02001757        1.33      1.33      1.58      0.01         0.01
  YS02001757CaochengTiaoxuchi        1.44      1.58      1.71      1.25         0.97
  YS02001759YS02001757        1.50      1.50      1.58      0.12         0.13
  YS02001762YS02001759        1.48      1.48      1.50      0.01         0.01
  YS02001765YS02001762        1.45      1.45      1.48      0.01         0.01
  YS02001767YS02001765        1.43      1.43      1.45      0.01         0.02
  YS02001770YS02001767        1.42      1.42      1.43      1.46         0.92
  YS02001774YS02001770        1.41      1.41      1.47      0.01         0.01
  YS02001779YS02001774        1.30      1.30      1.47      0.01         0.01
  YS02001783YS02001784        1.48      1.52      1.48      1.69         1.48
  YS02001784YS02001785        1.33      1.48      1.33      1.84         1.33
  YS02001786YS02001788        0.01      1.33      0.01      1.78         0.01
  YS02001790YS02001791        0.01      0.01      0.01      1.46         0.01
  YS02001793JiankangQianchi        0.01      0.01      7.31      0.01         0.01
  YS02001882YS02001884        1.44      1.44      1.46      0.01         0.01
  YS02001884YS02001887        1.49      1.49      1.50      0.01         0.01
  YS02001887YS02001890        1.52      1.52      1.54      0.62         0.01
  YS02001890YS02001895        1.42      1.42      1.56      0.01         0.01
  YS02001895YS02001898        1.41      1.41      1.42      0.01         0.01
  YS02001898YS02001901        1.43      1.43      1.49      0.01         0.01
  YS02001901YS02001904        1.47      1.47      1.49      0.01         0.01
  YS02001904YS02001907        1.47      1.47      1.77      0.01         0.01
  YS02001907YS02006553        1.84      1.84      1.87      0.24         0.24
  YS02001910YS02001907        1.55      1.55      1.76      0.45         0.45
  YS02001915YS02001910        1.44      1.44      1.55      0.01         0.05
  YS02001918YS02001915        1.30      1.30      1.44      0.01         0.01
  YS02001920YS02001918        1.30      1.30      1.33      0.24         0.01
  YS02001923YS02001920        1.24      1.24      1.33      0.01         0.01
  YS02001926YS02001923        0.64      0.64      0.69      0.39         0.01
  YS02001929YS02001926        0.48      0.48      0.69      0.01         0.01
  YS02006553YS02006556        1.67      1.67      1.77      0.19         0.19
  YS02006556YS02006558        1.72      1.72      1.78      0.17         0.01
  YS02006558YS02006561        1.36      1.65      1.36      1.81         1.36
  YS02006561YS02001783        1.25      1.25      1.52      0.01         0.01
  YS02163301YS02001633        1.85      1.85      1.89      0.26         0.01
  YS02163601YS02164001        1.81      1.81      1.90      0.26         0.01
  YS02164001YS02001641        1.80      1.81      1.80      1.23         1.16
  YSB1154YSB6556              0.90      0.90      1.09      0.01         0.01
  YSB1171HS02004479           0.80      0.80      1.10      0.01         0.01
  YSB1174YSB1171              0.97      0.97      1.41      0.01         0.01
  YSB6556YSB1171              0.90      0.90      1.61      0.01         0.01
  
  
  ***************
  Pumping Summary
  ***************
  
  ---------------------------------------------------------------------------------------------------------
                                                  Min       Avg       Max     Total     Power    % Time Off
                        Percent   Number of      Flow      Flow      Flow    Volume     Usage    Pump Curve
  Pump                 Utilized   Start-Ups       LPS       LPS       LPS  10^6 ltr     Kw-hr    Low   High
  ---------------------------------------------------------------------------------------------------------
  CC-R1                   24.52           5      0.00    852.36   1024.50     5.728    107.53    0.0   18.2
  CC-R2                   32.72          35      0.00   1007.61   1024.50     9.449    174.01    0.0   34.5
  CC-S1                   30.83          34      0.00    259.73    300.00     2.303     16.26    0.0    0.0
  CC-S2                   31.71          25      0.00    288.39    300.00     2.619     18.26    0.0    0.0
  JK-R1                    6.02          21      0.00   1236.24   1500.00     2.091     21.90    0.0    0.0
  JK-R2                    8.81          34      0.00   1492.93   1500.00     3.781     31.46    0.0    0.0
  JK-S                    17.02          24      0.00    399.76    450.00     1.919     30.01    0.0    0.0
  XR-1                    97.91           2      0.00     95.00     95.00     2.679      9.61    0.0    0.0
  XR-2                    93.94           2      0.00     95.00     95.00     2.570      8.77    0.0    0.0
  XR-3                     0.00           1      0.00     95.00     95.00     0.000      0.00    0.0    0.0
  XR-4                     0.00           1      0.00     95.00     95.00     0.000      0.00    0.0    0.0
  

  Analysis begun on:  Wed Jul 19 15:31:11 2023
  Analysis ended on:  Wed Jul 19 15:31:19 2023
  Total elapsed time: 00:00:08