
  OWA STORM WATER MANAGEMENT MODEL - VERSION v5.1.14 (OWA 2022-07-31)
  --------------------------------------------------------------

  WARNING 04: minimum elevation drop used for Conduit WS02004404WS02004405
  WARNING 03: negative offset ignored for Link YS02001904YS02001907
  
  *********************************************************
  NOTE: The summary statistics displayed in this report are
  based on results found at every computational time step,  
  not just on results from each reporting time step.
  *********************************************************
  
  ****************
  Analysis Options
  ****************
  Flow Units ............... LPS
  Process Models:
    Rainfall/Runoff ........ YES
    RDII ................... NO
    Snowmelt ............... NO
    Groundwater ............ NO
    Flow Routing ........... YES
    Ponding Allowed ........ NO
    Water Quality .......... NO
  Infiltration Method ...... HORTON
  Flow Routing Method ...... DYNWAVE
  Surcharge Method ......... EXTRAN
  Starting Date ............ 08/28/2015 08:00:00
  Ending Date .............. 08/28/2015 16:00:00
  Antecedent Dry Days ...... 8.0
  Report Time Step ......... 00:01:00
  Wet Time Step ............ 00:01:00
  Dry Time Step ............ 00:01:00
  Routing Time Step ........ 30.00 sec
  Variable Time Step ....... YES
  Maximum Trials ........... 8
  Number of Threads ........ 4
  Head Tolerance ........... 0.001500 m
  
  
  **************************        Volume         Depth
  Runoff Quantity Continuity     hectare-m            mm
  **************************     ---------       -------
  Total Precipitation ......         6.147       185.324
  Evaporation Loss .........         0.000         0.000
  Infiltration Loss ........         0.109         3.275
  Surface Runoff ...........         6.007       181.095
  Final Storage ............         0.033         0.998
  Continuity Error (%) .....        -0.024
  
  
  **************************        Volume        Volume
  Flow Routing Continuity        hectare-m      10^6 ltr
  **************************     ---------     ---------
  Dry Weather Inflow .......         0.025         0.251
  Wet Weather Inflow .......         6.008        60.076
  Groundwater Inflow .......         0.000         0.000
  RDII Inflow ..............         0.000         0.000
  External Inflow ..........         0.083         0.834
  External Outflow .........         2.241        22.415
  Flooding Loss ............         3.973        39.727
  Evaporation Loss .........         0.000         0.000
  Exfiltration Loss ........         0.000         0.000
  Initial Stored Volume ....         0.243         2.431
  Final Stored Volume ......         0.182         1.816
  Continuity Error (%) .....        -0.575
  
  
  *************************
  Highest Continuity Errors
  *************************
  Node YS02001884 (5.30%)
  Node WS02006256 (-5.17%)
  Node YS02001583 (-2.91%)
  
  
  ***************************
  Time-Step Critical Elements
  ***************************
  Link WS02006252WS02006251 (32.18%)
  Link WS02006238WS02006235 (17.69%)
  Link WS02006235WS02006234 (13.28%)
  Link WS02004404WS02004405 (10.96%)
  Link YS02001791YS02001793 (7.59%)
  
  
  ********************************
  Highest Flow Instability Indexes
  ********************************
  Link WS02006113WS02006111 (44)
  Link WS02006111WS02006112 (25)
  Link WS02006256WS02006235 (24)
  Link WS02006252WS02006251 (22)
  Link YS02001602YS02001605 (22)
  
  
  *************************
  Routing Time Step Summary
  *************************
  Minimum Time Step           :     0.00 sec
  Average Time Step           :     2.42 sec
  Maximum Time Step           :    30.00 sec
  Percent in Steady State     :    -0.00
  Average Iterations per Step :     3.73
  Percent Not Converging      :    19.35
  
  
  ***************************
  Subcatchment Runoff Summary
  ***************************
  
  ------------------------------------------------------------------------------------------------------------------------------
                            Total      Total      Total      Total     Imperv       Perv      Total       Total     Peak  Runoff
                           Precip      Runon       Evap      Infil     Runoff     Runoff     Runoff      Runoff   Runoff   Coeff
  Subcatchment                 mm         mm         mm         mm         mm         mm         mm    10^6 ltr      LPS
  ------------------------------------------------------------------------------------------------------------------------------
  sub60                    232.27       0.00       0.00       1.95     203.24      25.93     229.17        3.01  2173.87   0.987
  sub61                    232.27       0.00       0.00       2.83     191.70      36.66     228.36        4.19  3028.83   0.983
  sub62                    232.27       0.00       0.00       1.30     212.44      17.29     229.73        6.29  4358.65   0.989
  sub63                    232.27       0.00       0.00       5.27     163.98      62.10     226.08        5.13  3564.97   0.973
  sub64                    232.27       0.00       0.00       2.66     196.26      32.19     228.45        5.49  3666.76   0.984
  sub65                    232.27       0.00       0.00       2.30     200.85      27.90     228.75        6.30  4128.78   0.985
  sub66                    232.27       0.00       0.00       6.62     163.85      60.74     224.60       10.47  5999.04   0.967
  sub67                     51.25       0.00       0.00       1.14      45.90       2.97      48.87        0.91   620.08   0.954
  sub68                     51.25       0.00       0.00       2.11      42.88       5.07      47.95        1.32   802.53   0.936
  sub69                    232.27       0.00       0.00       2.16     197.35      32.69     230.04        8.52  5501.10   0.990
  sub70                    232.27       0.00       0.00       7.35     153.15      71.63     224.78        6.49  3436.46   0.968
  sub71                     51.25       0.00       0.00       1.20      45.82       2.90      48.72        1.27   681.45   0.951
  sub72                     51.25       0.00       0.00       1.07      46.26       2.52      48.78        0.67   324.82   0.952
  
  
  ******************
  Node Depth Summary
  ******************
  
  ---------------------------------------------------------------------------------
                                 Average  Maximum  Maximum  Time of Max    Reported
                                   Depth    Depth      HGL   Occurrence   Max Depth
  Node                 Type       Meters   Meters   Meters  days hr:min      Meters
  ---------------------------------------------------------------------------------
  WS02003060           JUNCTION     0.22     0.38     5.31     0  02:05        0.38
  WS02003066           JUNCTION     0.18     0.30     5.85     0  02:04        0.30
  WS02003067           JUNCTION     0.48     0.70     6.02     0  02:04        0.70
  WS02003069           JUNCTION     0.24     0.43     5.01     0  02:05        0.43
  WS02003072           JUNCTION     0.30     0.50     4.87     0  02:06        0.50
  WS02003073           JUNCTION     0.17     0.30     4.36     0  02:06        0.30
  WS02004401           JUNCTION     0.58     0.85     6.85     0  02:01        0.85
  WS02004402           JUNCTION     0.62     0.88     6.84     0  02:01        0.88
  WS02004403           JUNCTION     0.64     0.89     6.82     0  02:02        0.89
  WS02004404           JUNCTION     0.72     0.96     6.81     0  02:02        0.96
  WS02004405           JUNCTION     0.71     0.95     6.80     0  02:02        0.95
  WS02004406           JUNCTION     0.73     0.96     6.79     0  02:57        0.95
  WS02004407           JUNCTION     0.17     0.30     6.61     0  02:02        0.30
  WS02004409           JUNCTION     0.37     0.66     6.43     0  02:03        0.66
  WS02004410           JUNCTION     0.40     0.68     6.40     0  02:03        0.68
  WS02004411           JUNCTION     0.42     0.69     6.37     0  02:03        0.69
  WS02004412           JUNCTION     0.44     0.70     6.34     0  02:04        0.70
  WS02004413           JUNCTION     0.60     0.86     6.33     0  02:04        0.85
  WS02006109           JUNCTION     0.64     1.20     7.82     0  01:52        1.04
  WS02006110           JUNCTION     0.64     1.22     7.80     0  01:52        0.97
  WS02006111           JUNCTION     0.17     0.90     7.60     0  00:00        0.40
  WS02006112           JUNCTION     0.74     2.68     8.56     0  00:00        1.14
  WS02006113           JUNCTION     0.26     1.40     8.29     0  00:00        0.46
  WS02006115           JUNCTION     0.46     1.65     7.79     0  00:00        0.86
  WS02006116           JUNCTION     0.55     1.06     7.10     0  00:00        0.83
  WS02006228           JUNCTION     0.63     1.37     8.02     0  01:52        1.08
  WS02006229           JUNCTION     0.60     1.42     8.12     0  01:52        1.09
  WS02006230           JUNCTION     0.60     1.71     8.45     0  01:52        1.22
  WS02006231           JUNCTION     0.41     1.65     8.78     0  01:52        1.65
  WS02006232           JUNCTION     0.54     2.18     9.22     0  01:52        2.18
  WS02006234           JUNCTION     0.46     1.96     9.12     0  01:52        1.96
  WS02006235           JUNCTION     0.50     2.00     9.16     0  02:55        2.00
  WS02006238           JUNCTION     0.53     2.15     9.29     0  02:55        2.15
  WS02006239           JUNCTION     0.50     2.03     9.24     0  02:55        2.03
  WS02006240           JUNCTION     0.47     2.10     9.39     0  02:55        2.10
  WS02006242           JUNCTION     0.54     1.55     8.82     0  02:55        1.55
  WS02006243           JUNCTION     0.46     1.48     8.90     0  02:55        1.48
  WS02006245           JUNCTION     0.47     1.56     9.04     0  02:55        1.56
  WS02006247           JUNCTION     0.49     1.47     8.97     0  02:55        1.47
  WS02006248           JUNCTION     0.45     1.10     8.69     0  01:52        1.10
  WS02006249           JUNCTION     0.48     1.09     8.69     0  01:46        1.09
  WS02006251           JUNCTION     0.48     1.54     9.21     0  01:46        1.15
  WS02006252           JUNCTION     0.34     1.50     9.74     0  01:19        0.76
  WS02006256           JUNCTION     0.86     2.35     9.28     0  00:10        2.35
  WSF200               JUNCTION     0.15     0.29     5.52     0  02:04        0.29
  YS02001580           JUNCTION     0.23     1.05     9.59     0  01:30        0.77
  YS02001583           JUNCTION     0.26     1.14     9.64     0  01:30        0.85
  YS02001586           JUNCTION     0.40     1.13     9.30     0  01:30        1.13
  YS02001590           JUNCTION     0.53     1.38     9.24     0  01:30        1.38
  YS02001593           JUNCTION     0.46     1.32     9.18     0  01:30        1.30
  YS02001596           JUNCTION     0.62     1.80     9.22     0  01:27        1.80
  YS02001600           JUNCTION     0.72     1.87     9.00     0  01:27        1.87
  YS02001601           JUNCTION     0.90     2.06     8.90     0  01:27        2.06
  YS02001602           JUNCTION     0.79     1.87     8.77     0  01:27        1.87
  YS02001605           JUNCTION     0.74     1.78     8.68     0  01:27        1.78
  YS02001607           JUNCTION     0.69     1.68     8.53     0  01:44        1.68
  YS02001610           JUNCTION     0.73     1.68     8.48     0  01:39        1.68
  YS02001613           JUNCTION     0.69     1.70     8.54     0  02:09        1.70
  YS02001616           JUNCTION     0.63     1.61     8.52     0  01:44        1.61
  YS02001619           JUNCTION     0.61     1.61     8.54     0  01:44        1.61
  YS02001622           JUNCTION     0.60     1.62     8.52     0  01:44        1.62
  YS02001625           JUNCTION     0.83     1.78     8.38     0  01:39        1.78
  YS02001629           JUNCTION     0.76     1.85     8.40     0  01:43        1.85
  YS02001633           JUNCTION     0.84     2.08     8.53     0  01:48        2.08
  YS02001641           JUNCTION     0.80     2.09     8.52     0  01:48        2.09
  YS02001644           JUNCTION     0.79     1.92     8.35     0  01:44        1.92
  YS02001647           JUNCTION     0.59     1.90     8.51     0  01:48        1.90
  YS02001649           JUNCTION     0.67     2.05     8.44     0  01:48        2.05
  YS02001652           JUNCTION     0.56     2.16     8.76     0  02:09        2.15
  YS02001655           JUNCTION     0.46     2.20     9.05     0  02:09        2.20
  YS02001658           JUNCTION     0.37     2.30     9.44     0  02:09        2.30
  YS02001661           JUNCTION     0.35     2.46     9.86     0  02:09        2.46
  YS02001664           JUNCTION     0.20     2.31    10.23     0  02:09        2.31
  YS02001745           JUNCTION     0.22     2.35     9.87     0  02:09        2.35
  YS02001748           JUNCTION     0.34     2.27     9.35     0  02:09        2.27
  YS02001751           JUNCTION     0.40     2.20     9.08     0  02:09        2.20
  YS02001754           JUNCTION     0.51     2.18     8.79     0  02:11        2.18
  YS02001757           JUNCTION     0.70     2.21     8.47     0  02:09        2.21
  YS02001759           JUNCTION     0.64     2.21     8.57     0  01:48        2.21
  YS02001762           JUNCTION     0.63     2.15     8.55     0  01:48        2.15
  YS02001765           JUNCTION     0.60     2.10     8.55     0  01:48        2.10
  YS02001767           JUNCTION     0.59     2.03     8.52     0  01:48        2.03
  YS02001770           JUNCTION     0.60     1.95     8.44     0  01:48        1.95
  YS02001774           JUNCTION     0.66     2.05     8.47     0  01:48        2.05
  YS02001779           JUNCTION     0.48     1.68     8.37     0  01:42        1.68
  YS02001783           JUNCTION     0.22     1.37     7.51     0  01:48        1.25
  YS02001784           JUNCTION     0.23     1.24     7.31     0  01:48        1.13
  YS02001786           JUNCTION     0.20     0.94     6.97     0  01:48        0.88
  YS02001788           JUNCTION     0.14     0.62     6.60     0  01:51        0.62
  YS02001790           JUNCTION     0.17     0.72     6.37     0  01:54        0.72
  YS02001791           JUNCTION     0.11     0.44     5.91     0  01:53        0.44
  YS02001793           JUNCTION     0.06     0.30     5.13     0  02:04        0.27
  YS02001882           JUNCTION     0.28     1.83     8.55     0  01:47        1.62
  YS02001884           JUNCTION     0.36     1.93     8.55     0  01:47        1.73
  YS02001887           JUNCTION     0.44     1.97     8.51     0  01:47        1.80
  YS02001890           JUNCTION     0.47     1.81     8.32     0  01:47        1.81
  YS02001895           JUNCTION     0.25     1.62     8.37     0  01:47        1.57
  YS02001898           JUNCTION     0.26     1.62     8.35     0  01:47        1.56
  YS02001901           JUNCTION     0.36     1.76     8.37     0  01:52        1.76
  YS02001904           JUNCTION     0.34     1.72     8.35     0  01:52        1.72
  YS02001907           JUNCTION     0.64     1.96     8.25     0  01:48        1.96
  YS02001910           JUNCTION     0.45     1.98     8.49     0  01:49        1.85
  YS02001915           JUNCTION     0.28     1.99     8.70     0  01:47        1.76
  YS02001918           JUNCTION     0.15     1.81     8.88     0  01:49        1.52
  YS02001920           JUNCTION     0.23     2.14     9.15     0  01:49        1.50
  YS02001923           JUNCTION     0.11     2.03     9.29     0  01:49        1.21
  YS02001926           JUNCTION     0.15     1.90     9.35     0  01:49        1.39
  YS02001929           JUNCTION     0.08     1.78     9.47     0  01:49        0.78
  YS02006553           JUNCTION     0.64     2.01     8.29     0  01:48        1.97
  YS02006556           JUNCTION     0.62     2.03     8.34     0  01:48        1.96
  YS02006558           JUNCTION     0.66     2.09     8.36     0  01:48        2.00
  YS02006561           JUNCTION     0.13     1.10     7.76     0  01:48        0.92
  YS02163301           JUNCTION     0.78     2.00     8.52     0  02:09        2.00
  YS02163601           JUNCTION     0.86     2.08     8.48     0  01:44        2.08
  YS02164001           JUNCTION     0.79     2.10     8.56     0  01:44        2.10
  CC-1                 OUTFALL      0.00     0.00     0.00     0  00:00        0.00
  CC-2                 OUTFALL      0.00     0.00     0.00     0  00:00        0.00
  JK-1                 OUTFALL      0.00     0.00     0.00     0  00:00        0.00
  JK-2                 OUTFALL      0.00     0.00     0.00     0  00:00        0.00
  WSC                  OUTFALL      0.17     0.30     0.97     0  02:07        0.30
  CC-storage           STORAGE      1.02     2.22     7.72     0  02:50        2.22
  JK-storage           STORAGE      1.20     4.24     5.04     0  02:07        4.21
  
  
  *******************
  Node Inflow Summary
  *******************
  
  -------------------------------------------------------------------------------------------------
                                  Maximum  Maximum                  Lateral       Total        Flow
                                  Lateral    Total  Time of Max      Inflow      Inflow     Balance
                                   Inflow   Inflow   Occurrence      Volume      Volume       Error
  Node                 Type           LPS      LPS  days hr:min    10^6 ltr    10^6 ltr     Percent
  -------------------------------------------------------------------------------------------------
  WS02003060           JUNCTION     16.53   550.04     0  02:05       0.476        5.43       0.045
  WS02003066           JUNCTION      0.00   533.19     0  02:04           0        4.95       0.028
  WS02003067           JUNCTION      0.00   533.10     0  02:04           0        4.96       0.085
  WS02003069           JUNCTION      0.32   550.12     0  02:05     0.00922        5.43       0.073
  WS02003072           JUNCTION      0.00   549.71     0  02:05           0        5.43       0.130
  WS02003073           JUNCTION      1.82   551.25     0  02:06      0.0524        5.48       0.107
  WS02004401           JUNCTION      0.00  1677.78     0  00:00           0        5.07       0.226
  WS02004402           JUNCTION      0.00  1171.33     0  00:01           0        5.05       0.219
  WS02004403           JUNCTION      0.00   907.51     0  00:01           0        5.04       0.215
  WS02004404           JUNCTION      0.16   854.53     0  00:01     0.00467        5.04       0.180
  WS02004405           JUNCTION      0.04   797.23     0  00:01      0.0011        5.03       0.245
  WS02004406           JUNCTION      0.00   655.67     0  00:02           0        5.01       0.433
  WS02004407           JUNCTION      0.00   535.62     0  02:02           0        4.99       0.021
  WS02004409           JUNCTION      0.00   535.37     0  02:02           0        4.99       0.053
  WS02004410           JUNCTION      0.00   534.52     0  02:03           0        4.99       0.092
  WS02004411           JUNCTION      0.00   534.02     0  02:03           0        4.98       0.114
  WS02004412           JUNCTION      0.00   533.51     0  02:03           0        4.98       0.149
  WS02004413           JUNCTION      0.00   533.45     0  02:04           0        4.97       0.272
  WS02006109           JUNCTION      1.23  1308.01     0  00:00      0.0354           5       0.184
  WS02006110           JUNCTION      0.00   591.09     0  01:52           0        4.97      -0.734
  WS02006111           JUNCTION      0.00  1176.04     0  00:00           0           5      -0.770
  WS02006112           JUNCTION      0.00  2307.30     0  00:00           0        5.04      -0.017
  WS02006113           JUNCTION      0.00   594.30     0  02:55           0        4.96      -1.001
  WS02006115           JUNCTION      0.00   899.27     0  00:00           0        5.01      -0.644
  WS02006116           JUNCTION      0.00  1098.16     0  00:01           0        5.04      -0.454
  WS02006228           JUNCTION      0.00   578.77     0  01:52           0        4.94       0.099
  WS02006229           JUNCTION      0.00   576.29     0  01:52           0        4.93       0.168
  WS02006230           JUNCTION     10.28   594.17     0  02:58       0.296        4.91       0.022
  WS02006231           JUNCTION      0.00   574.72     0  01:51           0         4.6      -0.060
  WS02006232           JUNCTION      0.00   573.41     0  01:51           0        4.61       0.145
  WS02006234           JUNCTION      0.00   568.77     0  01:51           0        4.59      -0.288
  WS02006235           JUNCTION      0.00   562.34     0  01:51           0        4.67       0.222
  WS02006238           JUNCTION      0.00   422.79     0  01:46           0        4.13      -0.148
  WS02006239           JUNCTION      0.00   421.83     0  01:46           0        4.07      -0.096
  WS02006240           JUNCTION      0.00   421.61     0  03:02           0        4.06       0.001
  WS02006242           JUNCTION      0.00   422.12     0  03:02           0        4.06       0.061
  WS02006243           JUNCTION      0.00   422.65     0  03:02           0        4.06       0.015
  WS02006245           JUNCTION      0.00   423.25     0  03:02           0        4.07       0.186
  WS02006247           JUNCTION      0.00   423.18     0  01:46           0        4.07       0.020
  WS02006248           JUNCTION      0.00   423.36     0  02:56           0        4.07      -0.010
  WS02006249           JUNCTION      0.00   766.28     0  00:00           0         4.2       0.169
  WS02006251           JUNCTION      0.08   453.22     0  00:00     0.00222        4.18      -0.292
  WS02006252           JUNCTION      0.00   400.00     0  00:00           0        4.15      -0.798
  WS02006256           JUNCTION      0.00   300.00     0  00:10           0       0.786      -4.913
  WSF200               JUNCTION      0.00   533.26     0  02:04           0        4.95       0.010
  YS02001580           JUNCTION      0.00    62.08     0  01:29           0     0.00432       2.106
  YS02001583           JUNCTION      0.00    95.61     0  01:29           0      0.0162      -2.832
  YS02001586           JUNCTION   3436.46  3436.46     0  02:14        6.49        6.51       0.008
  YS02001590           JUNCTION      0.00   319.82     0  01:44           0        2.32      -0.022
  YS02001593           JUNCTION      0.00   319.30     0  01:44           0        2.32       0.003
  YS02001596           JUNCTION      0.00   318.23     0  02:49           0        2.32      -0.008
  YS02001600           JUNCTION      0.00   318.16     0  02:55           0        2.32       0.003
  YS02001601           JUNCTION   5501.10  5818.44     0  02:13        8.52        10.8      -0.002
  YS02001602           JUNCTION      0.00   504.55     0  01:29           0        3.36       0.008
  YS02001605           JUNCTION      0.00   504.46     0  01:29           0        3.03       0.009
  YS02001607           JUNCTION      0.00   504.25     0  01:29           0        3.03       0.063
  YS02001610           JUNCTION      0.00   954.61     0  02:15           0        4.69       0.046
  YS02001613           JUNCTION      0.00   618.18     0  02:08           0        3.22       0.050
  YS02001616           JUNCTION      0.00   618.16     0  02:19           0        3.23       0.016
  YS02001619           JUNCTION   5999.04  5999.04     0  02:14        10.5          12      -0.002
  YS02001622           JUNCTION      0.00  1054.00     0  02:17           0           7       0.001
  YS02001625           JUNCTION      0.00  1505.52     0  02:18           0         8.2       0.136
  YS02001629           JUNCTION      0.00  1139.06     0  02:17           0        4.99      -0.008
  YS02001633           JUNCTION   4128.98  4128.98     0  02:13         6.3        9.22       0.035
  YS02001641           JUNCTION      0.00  1326.58     0  01:39           0        6.27       0.038
  YS02001644           JUNCTION   3666.80  5419.38     0  02:13        5.49        12.8       0.022
  YS02001647           JUNCTION      0.00  1686.97     0  01:39           0        7.09       0.002
  YS02001649           JUNCTION      0.00  3199.73     0  02:13           0        11.1      -0.002
  YS02001652           JUNCTION      0.00  2429.33     0  02:16           0        4.87      -0.036
  YS02001655           JUNCTION      0.15  2731.44     0  02:16     0.00443        4.99       0.024
  YS02001658           JUNCTION      0.00  2783.69     0  02:15           0           5      -0.024
  YS02001661           JUNCTION      0.00  2783.82     0  02:15           0        4.99      -0.055
  YS02001664           JUNCTION   3564.97  3564.97     0  02:13        5.13        5.13       0.009
  YS02001745           JUNCTION   2173.88  2173.88     0  02:13        3.01        3.01       0.038
  YS02001748           JUNCTION      0.04  2177.56     0  02:13      0.0013        3.01      -0.082
  YS02001751           JUNCTION      0.01  2183.29     0  02:13    0.000317        3.01       0.032
  YS02001754           JUNCTION      0.26  2189.56     0  02:13     0.00749        3.02      -0.063
  YS02001757           JUNCTION      0.00  3601.98     0  02:13           0        17.5       0.026
  YS02001759           JUNCTION   3028.87  3028.87     0  02:13        4.19        6.42      -0.012
  YS02001762           JUNCTION      0.00   722.30     0  02:15           0        2.75      -0.026
  YS02001765           JUNCTION      0.00   721.84     0  02:15           0        2.75      -0.018
  YS02001767           JUNCTION      0.54   722.54     0  02:14      0.0154        2.75      -0.014
  YS02001770           JUNCTION   4358.80  5078.74     0  02:13         6.3        6.87      -0.016
  YS02001774           JUNCTION      0.00   852.18     0  02:18           0        1.85       0.018
  YS02001779           JUNCTION      0.01   851.82     0  02:19    0.000144        1.81      -0.030
  YS02001783           JUNCTION      0.00  1157.27     0  01:49           0        3.57       0.005
  YS02001784           JUNCTION      1.06  1158.61     0  01:49      0.0305         3.6       0.015
  YS02001786           JUNCTION      0.06  1158.72     0  01:49     0.00162         3.6       0.015
  YS02001788           JUNCTION      0.07  1162.18     0  01:48     0.00204         3.6       0.008
  YS02001790           JUNCTION      0.15  1172.22     0  01:50     0.00446        3.61       0.041
  YS02001791           JUNCTION      0.00  1281.08     0  01:54           0        3.61      -0.036
  YS02001793           JUNCTION      0.00  1238.07     0  01:56           0        3.61       0.004
  YS02001882           JUNCTION      0.00    90.25     0  01:47           0      0.0126       6.282
  YS02001884           JUNCTION      0.00   134.82     0  01:47           0      0.0485       5.599
  YS02001887           JUNCTION    620.53   620.57     0  01:50       0.922       0.955       0.474
  YS02001890           JUNCTION      0.00   620.69     0  01:50           0       0.914       0.559
  YS02001895           JUNCTION      0.00   559.23     0  01:48           0       0.891       0.190
  YS02001898           JUNCTION      0.00   557.57     0  01:48           0       0.889      -0.003
  YS02001901           JUNCTION      0.00   557.13     0  01:48           0       0.892       0.377
  YS02001904           JUNCTION      0.00   550.90     0  01:48           0       0.897       0.325
  YS02001907           JUNCTION      0.00  1628.02     0  01:50           0        2.92       0.611
  YS02001910           JUNCTION      0.00  1101.79     0  01:50           0        2.03       0.353
  YS02001915           JUNCTION    681.47  1101.12     0  01:50        1.27        2.08       0.077
  YS02001918           JUNCTION      0.00   607.24     0  01:48           0       0.837       0.013
  YS02001920           JUNCTION      2.87   578.51     0  01:48      0.0827       0.814       0.093
  YS02001923           JUNCTION      0.04   679.30     0  01:48     0.00109       0.714      -0.139
  YS02001926           JUNCTION      0.05  1044.91     0  01:48      0.0015       0.693      -0.349
  YS02001929           JUNCTION    324.82   992.98     0  01:49       0.671       0.677      -0.162
  YS02006553           JUNCTION      0.00   791.01     0  02:06           0        2.28       0.522
  YS02006556           JUNCTION      0.00   791.11     0  02:06           0        2.28       0.353
  YS02006558           JUNCTION    803.41  1187.67     0  01:48        1.35         3.6       0.103
  YS02006561           JUNCTION      0.00  1183.78     0  01:48           0        3.57      -0.003
  YS02163301           JUNCTION      0.00  1138.93     0  02:18           0           5       0.029
  YS02163601           JUNCTION      0.11  1327.95     0  01:39     0.00317        6.26       0.076
  YS02164001           JUNCTION      0.00  1327.47     0  01:39           0        6.26       0.033
  CC-1                 OUTFALL       0.00   683.00     0  01:05           0        6.11       0.000
  CC-2                 OUTFALL       0.00   683.00     0  00:10           0        7.89       0.000
  JK-1                 OUTFALL       0.00  1000.00     0  00:00           0        1.64       0.000
  JK-2                 OUTFALL       0.00  1000.00     0  00:00           0        1.31       0.000
  WSC                  OUTFALL       0.00   550.75     0  02:07           0        5.47       0.000
  CC-storage           STORAGE       0.00  3068.50     0  01:50           0        19.5      -0.167
  JK-storage           STORAGE       0.00  1237.30     0  01:56           0        3.76      -0.433
  
  
  **********************
  Node Surcharge Summary
  **********************
  
  Surcharging occurs when water rises above the top of the highest conduit.
  ---------------------------------------------------------------------
                                               Max. Height   Min. Depth
                                   Hours       Above Crown    Below Rim
  Node                 Type      Surcharged         Meters       Meters
  ---------------------------------------------------------------------
  WS02006109           JUNCTION        2.30          0.379        1.441
  WS02006110           JUNCTION        0.35          0.307        1.543
  WS02006111           JUNCTION        0.01          0.087        1.783
  WS02006112           JUNCTION        0.58          1.680        0.000
  WS02006113           JUNCTION        0.01          0.600        1.330
  WS02006115           JUNCTION        0.01          0.642        1.608
  WS02006116           JUNCTION        0.01          0.000        2.290
  WS02006228           JUNCTION        2.29          0.538        1.662
  WS02006229           JUNCTION        2.30          0.623        1.827
  WS02006230           JUNCTION        0.36          0.629        0.941
  WS02006231           JUNCTION        0.52          0.945        0.585
  WS02006232           JUNCTION        2.34          1.480        0.000
  WS02006234           JUNCTION        0.71          1.240        0.000
  WS02006235           JUNCTION        2.25          1.290        0.000
  WS02006238           JUNCTION        2.30          1.430        0.000
  WS02006239           JUNCTION        2.27          1.290        0.000
  WS02006240           JUNCTION        2.29          1.390        0.000
  WS02006242           JUNCTION        2.31          0.820        0.000
  WS02006243           JUNCTION        2.28          0.770        0.000
  WS02006245           JUNCTION        2.28          0.850        0.000
  WS02006247           JUNCTION        2.28          0.760        0.000
  WS02006248           JUNCTION        2.27          0.380        0.000
  WS02006249           JUNCTION        2.27          0.390        0.000
  WS02006251           JUNCTION        0.62          0.513        0.667
  WS02006252           JUNCTION        2.60          1.100        0.000
  WS02006256           JUNCTION        6.62          2.050        0.000
  YS02001580           JUNCTION        1.56          0.450        0.000
  YS02001583           JUNCTION        1.57          0.500        0.000
  YS02001586           JUNCTION        1.70          0.510        0.000
  YS02001590           JUNCTION        1.77          0.733        0.017
  YS02001593           JUNCTION        1.77          0.701        0.139
  YS02001596           JUNCTION        1.89          1.070        0.000
  YS02001600           JUNCTION        2.02          1.190        0.000
  YS02001601           JUNCTION        2.27          1.440        0.000
  YS02001602           JUNCTION        2.20          1.270        0.000
  YS02001605           JUNCTION        2.17          1.180        0.000
  YS02001607           JUNCTION        1.79          0.680        0.000
  YS02001610           JUNCTION        1.82          0.680        0.000
  YS02001613           JUNCTION        1.79          0.700        0.000
  YS02001616           JUNCTION        1.75          0.610        0.000
  YS02001619           JUNCTION        1.74          0.610        0.000
  YS02001622           JUNCTION        1.74          0.620        0.000
  YS02001625           JUNCTION        1.93          0.780        0.000
  YS02001629           JUNCTION        1.66          0.470        0.000
  YS02001633           JUNCTION        1.99          1.060        0.000
  YS02001641           JUNCTION        1.95          1.086        0.014
  YS02001644           JUNCTION        1.93          0.920        0.000
  YS02001647           JUNCTION        1.64          0.900        0.000
  YS02001649           JUNCTION        1.78          1.050        0.000
  YS02001652           JUNCTION        1.58          1.130        0.000
  YS02001655           JUNCTION        1.42          1.200        0.000
  YS02001658           JUNCTION        1.20          1.300        0.000
  YS02001661           JUNCTION        0.51          1.390        0.000
  YS02001664           JUNCTION        0.29          1.310        0.000
  YS02001745           JUNCTION        0.29          1.350        0.000
  YS02001748           JUNCTION        1.00          1.190        0.000
  YS02001751           JUNCTION        1.34          1.200        0.000
  YS02001754           JUNCTION        1.51          1.131        0.019
  YS02001757           JUNCTION        1.85          1.210        0.000
  YS02001759           JUNCTION        1.76          1.210        0.000
  YS02001762           JUNCTION        1.73          1.150        0.000
  YS02001765           JUNCTION        1.69          1.100        0.000
  YS02001767           JUNCTION        1.66          1.030        0.000
  YS02001770           JUNCTION        1.64          0.920        0.000
  YS02001774           JUNCTION        1.71          1.050        0.000
  YS02001779           JUNCTION        1.50          0.680        0.000
  YS02001783           JUNCTION        0.46          0.573        1.027
  YS02001784           JUNCTION        0.44          0.438        1.052
  YS02001786           JUNCTION        0.34          0.135        1.295
  YS02001882           JUNCTION        0.41          0.830        0.000
  YS02001884           JUNCTION        0.42          0.870        0.000
  YS02001887           JUNCTION        0.45          0.920        0.030
  YS02001890           JUNCTION        0.46          0.760        0.000
  YS02001895           JUNCTION        0.40          0.618        0.132
  YS02001898           JUNCTION        0.39          0.589        0.151
  YS02001901           JUNCTION        0.44          0.759        0.111
  YS02001904           JUNCTION        0.43          0.716        0.134
  YS02001907           JUNCTION        0.63          0.950        0.000
  YS02001910           JUNCTION        0.49          0.981        0.119
  YS02001915           JUNCTION        0.41          0.986        0.014
  YS02001918           JUNCTION        0.33          0.810        0.000
  YS02001920           JUNCTION        0.34          1.140        0.000
  YS02001923           JUNCTION        0.01          0.820        0.000
  YS02001926           JUNCTION        0.02          0.900        0.000
  YS02001929           JUNCTION        0.01          0.780        0.000
  YS02006553           JUNCTION        0.65          1.010        0.180
  YS02006556           JUNCTION        0.56          0.992        0.358
  YS02006558           JUNCTION        0.55          0.990        0.410
  YS02006561           JUNCTION        0.29          0.298        0.852
  YS02163301           JUNCTION        1.96          1.002        0.028
  YS02163601           JUNCTION        2.04          1.080        0.000
  YS02164001           JUNCTION        1.94          1.100        0.000
  
  
  *********************
  Node Flooding Summary
  *********************
  
  Flooding refers to all water that overflows a node, whether it ponds or not.
  --------------------------------------------------------------------------
                                                             Total   Maximum
                                 Maximum   Time of Max       Flood    Ponded
                        Hours       Rate    Occurrence      Volume     Depth
  Node                 Flooded       LPS   days hr:min    10^6 ltr    Meters
  --------------------------------------------------------------------------
  WS02006112              0.01   1547.89      0  00:00       0.047     0.000
  WS02006232              0.01      1.46      0  01:52       0.000     0.000
  WS02006234              0.01      3.40      0  01:52       0.000     0.000
  WS02006235              0.01      5.15      0  02:55       0.000     0.000
  WS02006238              0.01      4.06      0  02:55       0.000     0.000
  WS02006239              0.01      2.09      0  02:55       0.000     0.000
  WS02006240              0.01      2.45      0  02:55       0.000     0.000
  WS02006242              0.01     17.78      0  02:55       0.000     0.000
  WS02006243              0.01      1.26      0  02:55       0.000     0.000
  WS02006245              0.01      0.92      0  02:55       0.000     0.000
  WS02006247              0.01      0.64      0  02:55       0.000     0.000
  WS02006248              0.05     31.28      0  03:06       0.002     0.000
  WS02006249              0.57     98.55      0  02:55       0.120     0.000
  WS02006252              0.01    263.02      0  01:19       0.000     0.000
  WS02006256              0.72    284.44      0  01:40       0.275     0.000
  YS02001580              0.01     37.46      0  01:30       0.000     0.000
  YS02001583              0.01     40.27      0  01:30       0.000     0.000
  YS02001586              1.40   3118.87      0  02:14       4.171     0.000
  YS02001596              0.01      0.61      0  01:27       0.000     0.000
  YS02001600              0.01      0.56      0  01:27       0.000     0.000
  YS02001601              1.63   5419.65      0  02:13       7.484     0.000
  YS02001602              1.49     62.28      0  02:55       0.321     0.000
  YS02001605              0.01      4.38      0  01:44       0.000     0.000
  YS02001607              0.01      0.53      0  01:44       0.000     0.000
  YS02001610              1.42    953.95      0  02:19       3.120     0.000
  YS02001613              0.01      1.25      0  02:09       0.000     0.000
  YS02001616              0.10      9.25      0  02:55       0.000     0.000
  YS02001619              0.56   4329.28      0  02:14       3.382     0.000
  YS02001622              0.01      0.34      0  01:44       0.000     0.000
  YS02001625              1.41   1505.30      0  02:20       5.283     0.000
  YS02001629              0.59    686.86      0  02:17       0.878     0.000
  YS02001633              0.25   2085.88      0  02:13       0.869     0.000
  YS02001644              0.97   5418.09      0  02:13       6.815     0.000
  YS02001647              0.01      3.32      0  01:48       0.000     0.000
  YS02001649              0.26   2352.78      0  02:13       1.260     0.000
  YS02001652              0.01      1.70      0  02:09       0.000     0.000
  YS02001655              0.13    303.23      0  02:13       0.116     0.000
  YS02001658              0.10     52.14      0  02:13       0.017     0.000
  YS02001661              0.01      1.40      0  02:09       0.000     0.000
  YS02001664              0.09    781.43      0  02:13       0.137     0.000
  YS02001745              0.01      2.09      0  02:11       0.000     0.000
  YS02001748              0.01      2.62      0  02:11       0.000     0.000
  YS02001751              0.01      0.41      0  02:09       0.000     0.000
  YS02001757              0.03     52.95      0  02:13       0.002     0.000
  YS02001759              0.11    899.59      0  02:13       0.169     0.000
  YS02001762              0.05      3.85      0  01:48       0.000     0.000
  YS02001765              0.01      3.03      0  01:48       0.000     0.000
  YS02001767              0.01      1.87      0  01:48       0.000     0.000
  YS02001770              0.43   4226.95      0  02:13       2.826     0.000
  YS02001774              0.01      2.74      0  01:48       0.000     0.000
  YS02001779              0.84    851.50      0  02:20       1.787     0.000
  YS02001882              0.01     25.84      0  01:47       0.000     0.000
  YS02001884              0.01     24.69      0  01:47       0.000     0.000
  YS02001890              0.09    100.84      0  01:47       0.018     0.000
  YS02001907              0.27   1265.45      0  01:50       0.634     0.000
  YS02001918              0.01    214.38      0  01:49       0.003     0.000
  YS02001920              0.01     88.02      0  01:49       0.000     0.000
  YS02001923              0.01    102.32      0  01:49       0.000     0.000
  YS02001926              0.01    482.33      0  01:49       0.004     0.000
  YS02001929              0.01    700.27      0  01:49       0.001     0.000
  YS02163601              0.01     22.18      0  01:44       0.000     0.000
  YS02164001              0.01      6.71      0  01:44       0.000     0.000
  
  
  **********************
  Storage Volume Summary
  **********************
  
  --------------------------------------------------------------------------------------------------
                         Average     Avg  Evap Exfil       Maximum     Max    Time of Max    Maximum
                          Volume    Pcnt  Pcnt  Pcnt        Volume    Pcnt     Occurrence    Outflow
  Storage Unit           1000 m3    Full  Loss  Loss       1000 m3    Full    days hr:min        LPS
  --------------------------------------------------------------------------------------------------
  CC-storage               2.842      44     0     0         6.198      97       0  02:50    1766.00
  JK-storage               0.060      21     0     0         0.213      73       0  02:07    2300.00
  
  
  ***********************
  Outfall Loading Summary
  ***********************
  
  -----------------------------------------------------------
                         Flow       Avg       Max       Total
                         Freq      Flow      Flow      Volume
  Outfall Node           Pcnt       LPS       LPS    10^6 ltr
  -----------------------------------------------------------
  CC-1                  40.74    683.00    683.00       6.109
  CC-2                  56.33    683.00    683.00       7.891
  JK-1                   7.50   1000.00   1000.00       1.640
  JK-2                   6.41   1000.00   1000.00       1.306
  WSC                   99.99    227.19    550.75       5.469
  -----------------------------------------------------------
  System                42.19   3593.19    550.75      22.414
  
  
  ********************
  Link Flow Summary
  ********************
  
  -----------------------------------------------------------------------------
                                 Maximum  Time of Max   Maximum    Max/    Max/
                                  |Flow|   Occurrence   |Veloc|    Full    Full
  Link                 Type          LPS  days hr:min     m/sec    Flow   Depth
  -----------------------------------------------------------------------------
  1                    CONDUIT    550.75     0  02:07      2.82    0.19    0.30
  WS02003060WS02003069 CONDUIT    549.80     0  02:05      1.64    0.22    0.34
  WS02003066WSF200     CONDUIT    533.26     0  02:04      2.85    0.09    0.22
  WS02003067WS02003066 CONDUIT    533.19     0  02:04      1.20    0.17    0.41
  WS02003069WS02003072 CONDUIT    549.71     0  02:05      1.37    0.26    0.39
  WS02003072WS02003073 CONDUIT    549.43     0  02:06      1.43    1.19    0.37
  WS02004401WS02004402 CONDUIT   1171.33     0  00:01      2.51    1.41    0.86
  WS02004402WS02004403 CONDUIT    907.51     0  00:01      2.15    1.30    0.88
  WS02004403WS02004404 CONDUIT    854.37     0  00:01      1.99    0.62    0.93
  WS02004404WS02004405 CONDUIT    797.19     0  00:01      2.28    7.81    0.96
  WS02004405WS02004406 CONDUIT    655.67     0  00:02      2.17    1.29    0.95
  WS02004406WS02004407 CONDUIT    535.62     0  02:02      1.04    0.24    0.63
  WS02004407WS02004409 CONDUIT    535.37     0  02:02      1.91    0.19    0.48
  WS02004409WS02004410 CONDUIT    534.52     0  02:03      1.32    0.69    0.67
  WS02004410WS02004411 CONDUIT    534.02     0  02:03      1.24    0.73    0.68
  WS02004411WS02004412 CONDUIT    533.51     0  02:03      1.16    0.76    0.69
  WS02004412WS02004413 CONDUIT    533.45     0  02:04      1.14    0.36    0.78
  WS02004413WS02003067 CONDUIT    533.10     0  02:04      1.11    0.23    0.59
  WS02006109WS02006110 CONDUIT   1306.78     0  00:00      3.14    2.51    1.00
  WS02006110WS02006113 CONDUIT    594.30     0  02:55      1.42    0.54    1.00
  WS02006111WS02006112 CONDUIT   2307.30     0  00:00      9.18    1.10    0.91
  WS02006112WS02006115 CONDUIT    899.27     0  00:00      1.16    0.53    1.00
  WS02006113WS02006111 CONDUIT   1176.04     0  00:00      2.49    1.41    1.00
  WS02006115WS02006116 CONDUIT   1098.16     0  00:01      1.72    1.41    1.00
  WS02006116WS02004401 CONDUIT   1677.78     0  00:00      2.92    2.31    0.84
  WS02006228WS02006109 CONDUIT    584.22     0  01:52      1.40    2.55    1.00
  WS02006229WS02006228 CONDUIT    578.77     0  01:52      1.24    1.92    1.00
  WS02006230WS02006229 CONDUIT    576.29     0  01:52      1.50   12.83    1.00
  WS02006231WS02006230 CONDUIT    583.89     0  02:58      1.58    8.86    1.00
  WS02006232WS02006231 CONDUIT    574.72     0  01:51      1.50    1.20    1.00
  WS02006234WS02006232 CONDUIT    573.41     0  01:51      1.49    1.16    1.00
  WS02006235WS02006234 CONDUIT    568.77     0  01:51      1.48    6.00    1.00
  WS02006238WS02006235 CONDUIT    439.95     0  03:06      1.69    0.98    1.00
  WS02006239WS02006238 CONDUIT    422.79     0  01:46      1.28    1.35    1.00
  WS02006240WS02006239 CONDUIT    421.83     0  01:46      1.33    1.33    1.00
  WS02006242WS02006240 CONDUIT    421.61     0  03:02      1.17    1.67    1.00
  WS02006243WS02006242 CONDUIT    422.12     0  03:02      1.45    0.90    1.00
  WS02006245WS02006243 CONDUIT    422.65     0  03:02      1.46    1.25    1.00
  WS02006247WS02006245 CONDUIT    423.25     0  03:02      1.43    3.36    1.00
  WS02006248WS02006247 CONDUIT    423.18     0  01:46      1.48    0.92    1.00
  WS02006249WS02006248 CONDUIT    423.36     0  02:56      1.45    2.32    1.00
  WS02006251WS02006249 CONDUIT    766.28     0  00:00      2.75    2.21    1.00
  WS02006252WS02006251 CONDUIT    453.14     0  00:00     24.54    1.66    1.00
  WS02006256WS02006235 CONDUIT    286.13     0  05:10      4.13    3.03    1.00
  WSF200WS02003060     CONDUIT    533.51     0  02:05      2.06    0.12    0.28
  YS02001580YS02001583 CONDUIT     62.08     0  01:29      0.49    0.24    1.00
  YS02001583YS02001586 CONDUIT     95.47     0  01:29      0.41    0.14    1.00
  YS02001586YS02001590 CONDUIT    319.82     0  01:44      1.24    0.56    1.00
  YS02001590YS02001593 CONDUIT    319.30     0  01:44      1.13    2.00    1.00
  YS02001593YS02001596 CONDUIT    318.23     0  02:49      1.71    0.50    1.00
  YS02001596YS02001600 CONDUIT    318.16     0  02:55      1.27    0.62    1.00
  YS02001600YS02001601 CONDUIT    318.34     0  02:55      1.13    0.55    1.00
  YS02001601YS02001602 CONDUIT    504.55     0  01:29      1.78    1.82    1.00
  YS02001602YS02001605 CONDUIT    504.46     0  01:29      1.78   10.68    1.00
  YS02001605YS02001607 CONDUIT    504.25     0  01:29      1.78    2.77    1.00
  YS02001607YS02001610 CONDUIT    502.68     0  01:29      0.64    0.48    1.00
  YS02001610YS02001613 CONDUIT    618.25     0  02:08      0.79    0.71    1.00
  YS02001613YS02001616 CONDUIT    618.18     0  02:08      0.79    0.53    1.00
  YS02001616YS02001619 CONDUIT    618.16     0  02:19      0.79    1.07    1.00
  YS02001619YS02001622 CONDUIT   1054.00     0  02:17      1.37    1.55    1.00
  YS02001622YS02001625 CONDUIT   1053.74     0  02:18      1.34    0.56    1.00
  YS02001625YS02001629 CONDUIT    925.98     0  01:38      1.18    0.44    1.00
  YS02001629YS02163301 CONDUIT   1139.06     0  02:17      1.45    1.40    1.00
  YS02001633YS02163601 CONDUIT   1327.84     0  01:39      1.69    1.39    1.00
  YS02001641YS02001644 CONDUIT   1326.85     0  01:39      1.69    4.29    1.00
  YS02001644YS02001647 CONDUIT   1686.97     0  01:39      2.17    0.99    1.00
  YS02001647YS02001649 CONDUIT   1704.49     0  01:39      2.30    0.90    1.00
  YS02001649YS02001757 CONDUIT   1952.98     0  01:39      2.50    1.19    1.00
  YS02001652YS02001649 CONDUIT   2429.32     0  02:16      3.09    1.20    1.00
  YS02001655YS02001652 CONDUIT   2429.33     0  02:16      3.09    1.18    1.00
  YS02001658YS02001655 CONDUIT   2731.29     0  02:16      3.48    1.16    1.00
  YS02001661YS02001658 CONDUIT   2783.69     0  02:15      3.54    1.09    1.00
  YS02001664YS02001661 CONDUIT   2783.82     0  02:15      3.54    0.87    1.00
  YS02001745YS02001748 CONDUIT   2177.52     0  02:13      2.77    0.84    1.00
  YS02001748YS02001751 CONDUIT   2183.28     0  02:13      2.78    1.10    1.00
  YS02001751YS02001754 CONDUIT   2189.30     0  02:13      2.79    1.06    1.00
  YS02001754YS02001757 CONDUIT   2193.04     0  02:13      2.79    0.88    1.00
  YS02001757CaochengTiaoxuchi CONDUIT   3068.50     0  01:50      3.91    1.33    1.00
  YS02001759YS02001757 CONDUIT   1556.94     0  02:15      1.98    1.11    1.00
  YS02001762YS02001759 CONDUIT    722.30     0  02:15      0.92    0.83    1.00
  YS02001765YS02001762 CONDUIT    721.84     0  02:15      0.92    0.68    1.00
  YS02001767YS02001765 CONDUIT    722.01     0  02:14      0.92    0.91    1.00
  YS02001770YS02001767 CONDUIT    722.18     0  02:15      0.92    2.86    1.00
  YS02001774YS02001770 CONDUIT    852.18     0  02:18      1.09    0.54    1.00
  YS02001779YS02001774 CONDUIT    851.82     0  02:19      1.08    0.43    1.00
  YS02001783YS02001784 CONDUIT   1157.55     0  01:49      2.30    1.60    1.00
  YS02001784YS02001785 CONDUIT   1158.66     0  01:49      2.31    2.70    1.00
  YS02001786YS02001788 CONDUIT   1162.11     0  01:48      2.49    2.24    0.89
  YS02001788YS02001790 CONDUIT   1172.06     0  01:50      2.72    0.86    0.84
  YS02001790YS02001791 CONDUIT   1281.08     0  01:54      3.42    1.39    0.70
  YS02001791YS02001793 CONDUIT   1238.07     0  01:56      6.76    0.53    0.44
  YS02001793JiankangQianchi CONDUIT   1237.30     0  01:56      2.49    0.10    0.65
  YS02001882YS02001884 CONDUIT     90.25     0  01:47      0.12    0.10    1.00
  YS02001884YS02001887 CONDUIT    134.82     0  01:47      0.17    0.18    1.00
  YS02001887YS02001890 CONDUIT    620.69     0  01:50      0.79    1.06    1.00
  YS02001890YS02001895 CONDUIT    559.23     0  01:48      0.71    0.26    1.00
  YS02001895YS02001898 CONDUIT    557.57     0  01:48      0.71    0.97    1.00
  YS02001898YS02001901 CONDUIT    557.13     0  01:48      0.71    0.36    1.00
  YS02001901YS02001904 CONDUIT    550.90     0  01:48      0.70    0.85    1.00
  YS02001904YS02001907 CONDUIT    561.17     0  01:48      0.71    0.20    1.00
  YS02001907YS02006553 CONDUIT    791.01     0  02:06      0.88    0.93    1.00
  YS02001910YS02001907 CONDUIT   1101.51     0  01:50      1.40    0.62    1.00
  YS02001915YS02001910 CONDUIT   1101.79     0  01:50      1.40    0.55    1.00
  YS02001918YS02001915 CONDUIT    607.24     0  01:48      0.77    0.33    1.00
  YS02001920YS02001918 CONDUIT    575.64     0  01:48      0.73    0.56    1.00
  YS02001923YS02001920 CONDUIT    578.73     0  01:48      0.75    0.26    1.00
  YS02001926YS02001923 CONDUIT    810.64     0  01:48      1.26    1.16    1.00
  YS02001929YS02001926 CONDUIT    722.41     0  01:49      1.21    0.34    1.00
  YS02006553YS02006556 CONDUIT    791.11     0  02:06      1.01    0.68    1.00
  YS02006556YS02006558 CONDUIT    792.75     0  02:05      1.01    0.63    1.00
  YS02006558YS02006561 CONDUIT   1183.78     0  01:48      4.19    2.62    1.00
  YS02006561YS02001783 CONDUIT   1157.27     0  01:49      2.30    0.60    1.00
  YS02163301YS02001633 CONDUIT   1138.93     0  02:18      1.45    1.07    1.00
  YS02163601YS02164001 CONDUIT   1327.47     0  01:39      1.69    1.18    1.00
  YS02164001YS02001641 CONDUIT   1326.58     0  01:39      1.69    1.81    1.00
  CC-R1                PUMP       683.00     0  01:05              1.00
  CC-R2                PUMP       683.00     0  00:10              1.00
  CC-S1                PUMP       200.00     0  00:00              1.00
  CC-S2                PUMP       200.00     0  00:00              1.00
  JK-R1                PUMP      1000.00     0  00:00              1.00
  JK-R2                PUMP      1000.00     0  00:00              1.00
  JK-S                 PUMP       300.00     0  00:10              1.00
  
  
  ***************************
  Flow Classification Summary
  ***************************
  
  -------------------------------------------------------------------------------------
                      Adjusted    ---------- Fraction of Time in Flow Class ---------- 
                       /Actual         Up    Down  Sub   Sup   Up    Down  Norm  Inlet 
  Conduit               Length    Dry  Dry   Dry   Crit  Crit  Crit  Crit  Ltd   Ctrl  
  -------------------------------------------------------------------------------------
  1                       1.00   0.00  0.00  0.00  0.00  1.00  0.00  0.00  0.37  0.00
  WS02003060WS02003069    1.00   0.00  0.00  0.00  0.93  0.07  0.00  0.00  0.64  0.00
  WS02003066WSF200        1.00   0.07  0.00  0.00  0.00  0.93  0.00  0.00  0.90  0.00
  WS02003067WS02003066    1.00   0.03  0.03  0.00  0.94  0.00  0.00  0.00  0.00  0.00
  WS02003069WS02003072    1.00   0.00  0.00  0.00  1.00  0.00  0.00  0.00  0.68  0.00
  WS02003072WS02003073    1.00   0.00  0.00  0.00  0.00  0.00  0.00  1.00  0.00  0.00
  WS02004401WS02004402    1.00   0.00  0.00  0.00  1.00  0.00  0.00  0.00  0.00  0.00
  WS02004402WS02004403    1.00   0.00  0.00  0.00  1.00  0.00  0.00  0.00  0.00  0.00
  WS02004403WS02004404    1.00   0.00  0.00  0.00  1.00  0.00  0.00  0.00  0.00  0.00
  WS02004404WS02004405    1.00   0.00  0.00  0.00  1.00  0.00  0.00  0.00  0.00  0.00
  WS02004405WS02004406    1.00   0.00  0.00  0.00  1.00  0.00  0.00  0.00  0.00  0.00
  WS02004406WS02004407    1.00   0.00  0.00  0.00  1.00  0.00  0.00  0.00  0.00  0.00
  WS02004407WS02004409    1.00   0.00  0.00  0.00  0.99  0.01  0.00  0.00  0.99  0.00
  WS02004409WS02004410    1.00   0.00  0.00  0.00  1.00  0.00  0.00  0.00  0.00  0.00
  WS02004410WS02004411    1.00   0.00  0.00  0.00  1.00  0.00  0.00  0.00  0.00  0.00
  WS02004411WS02004412    1.00   0.00  0.00  0.00  0.99  0.00  0.00  0.00  0.00  0.00
  WS02004412WS02004413    1.00   0.00  0.00  0.00  0.99  0.01  0.00  0.00  0.00  0.00
  WS02004413WS02003067    1.00   0.01  0.02  0.00  0.00  0.00  0.97  0.00  0.00  0.00
  WS02006109WS02006110    1.00   0.00  0.00  0.00  1.00  0.00  0.00  0.00  0.00  0.00
  WS02006110WS02006113    1.00   0.00  0.00  0.00  1.00  0.00  0.00  0.00  0.00  0.00
  WS02006111WS02006112    1.00   0.00  0.00  0.00  1.00  0.00  0.00  0.00  1.00  0.00
  WS02006112WS02006115    1.00   0.00  0.00  0.00  1.00  0.00  0.00  0.00  0.00  0.00
  WS02006113WS02006111    1.00   0.00  0.00  0.00  0.00  1.00  0.00  0.00  0.14  0.00
  WS02006115WS02006116    1.00   0.00  0.00  0.00  1.00  0.00  0.00  0.00  0.00  0.00
  WS02006116WS02004401    1.00   0.00  0.00  0.00  1.00  0.00  0.00  0.00  0.00  0.00
  WS02006228WS02006109    1.00   0.00  0.00  0.00  1.00  0.00  0.00  0.00  0.00  0.00
  WS02006229WS02006228    1.00   0.00  0.00  0.00  1.00  0.00  0.00  0.00  0.00  0.00
  WS02006230WS02006229    1.00   0.00  0.00  0.00  1.00  0.00  0.00  0.00  0.02  0.00
  WS02006231WS02006230    1.00   0.00  0.00  0.00  0.40  0.00  0.60  0.00  0.00  0.00
  WS02006232WS02006231    1.00   0.00  0.00  0.00  0.99  0.00  0.01  0.00  0.00  0.00
  WS02006234WS02006232    1.00   0.00  0.00  0.00  1.00  0.00  0.00  0.00  0.03  0.00
  WS02006235WS02006234    1.00   0.00  0.00  0.00  0.94  0.00  0.06  0.00  0.00  0.00
  WS02006238WS02006235    1.00   0.00  0.00  0.00  0.99  0.00  0.00  0.00  0.00  0.00
  WS02006239WS02006238    1.00   0.00  0.00  0.00  0.99  0.00  0.00  0.00  0.13  0.00
  WS02006240WS02006239    1.00   0.00  0.00  0.00  0.85  0.00  0.00  0.15  0.09  0.00
  WS02006242WS02006240    1.00   0.00  0.00  0.00  0.99  0.00  0.01  0.00  0.00  0.00
  WS02006243WS02006242    1.00   0.00  0.00  0.00  0.99  0.00  0.00  0.01  0.55  0.00
  WS02006245WS02006243    1.00   0.00  0.00  0.00  0.89  0.00  0.00  0.11  0.00  0.00
  WS02006247WS02006245    1.00   0.00  0.00  0.00  0.99  0.00  0.00  0.01  0.00  0.00
  WS02006248WS02006247    1.00   0.00  0.00  0.00  1.00  0.00  0.00  0.00  0.48  0.00
  WS02006249WS02006248    1.00   0.00  0.00  0.00  0.69  0.00  0.31  0.00  0.00  0.00
  WS02006251WS02006249    1.00   0.00  0.00  0.00  1.00  0.00  0.00  0.00  0.51  0.00
  WS02006252WS02006251    1.00   0.00  0.23  0.00  0.10  0.00  0.67  0.00  0.00  0.00
  WS02006256WS02006235    1.00   0.00  0.00  0.00  0.98  0.01  0.00  0.00  0.01  0.00
  WSF200WS02003060        1.00   0.00  0.07  0.00  0.32  0.61  0.00  0.00  0.60  0.00
  YS02001580YS02001583    1.00   0.21  0.37  0.00  0.42  0.00  0.00  0.00  0.60  0.00
  YS02001583YS02001586    1.00   0.26  0.19  0.00  0.54  0.00  0.01  0.00  0.60  0.00
  YS02001586YS02001590    1.00   0.14  0.00  0.00  0.67  0.02  0.00  0.17  0.31  0.00
  YS02001590YS02001593    1.00   0.14  0.00  0.00  0.37  0.00  0.49  0.00  0.00  0.00
  YS02001593YS02001596    1.00   0.14  0.00  0.00  0.40  0.01  0.00  0.45  0.02  0.00
  YS02001596YS02001600    1.00   0.14  0.00  0.00  0.44  0.01  0.00  0.41  0.03  0.00
  YS02001600YS02001601    1.00   0.14  0.00  0.00  0.86  0.00  0.00  0.00  0.54  0.00
  YS02001601YS02001602    1.00   0.14  0.00  0.00  0.86  0.00  0.00  0.00  0.00  0.00
  YS02001602YS02001605    1.00   0.14  0.00  0.00  0.86  0.00  0.00  0.00  0.00  0.00
  YS02001605YS02001607    1.00   0.14  0.00  0.00  0.86  0.00  0.00  0.00  0.00  0.00
  YS02001607YS02001610    1.00   0.14  0.00  0.00  0.86  0.00  0.00  0.00  0.00  0.00
  YS02001610YS02001613    1.00   0.14  0.00  0.00  0.86  0.00  0.00  0.00  0.00  0.00
  YS02001613YS02001616    1.00   0.14  0.00  0.00  0.86  0.00  0.00  0.00  0.00  0.00
  YS02001616YS02001619    1.00   0.14  0.00  0.00  0.86  0.00  0.00  0.00  0.00  0.00
  YS02001619YS02001622    1.00   0.14  0.00  0.00  0.86  0.00  0.00  0.00  0.24  0.00
  YS02001622YS02001625    1.00   0.14  0.00  0.00  0.86  0.00  0.00  0.00  0.01  0.00
  YS02001625YS02001629    1.00   0.14  0.01  0.00  0.44  0.00  0.41  0.00  0.00  0.00
  YS02001629YS02163301    1.00   0.14  0.00  0.00  0.85  0.00  0.00  0.00  0.00  0.00
  YS02001633YS02163601    1.00   0.00  0.00  0.00  1.00  0.00  0.00  0.00  0.13  0.00
  YS02001641YS02001644    1.00   0.00  0.00  0.00  1.00  0.00  0.00  0.00  0.00  0.00
  YS02001644YS02001647    1.00   0.00  0.15  0.00  0.85  0.00  0.00  0.00  0.00  0.00
  YS02001647YS02001649    1.00   0.00  0.15  0.00  0.63  0.22  0.00  0.00  0.53  0.00
  YS02001649YS02001757    1.00   0.00  0.00  0.00  0.80  0.20  0.00  0.00  0.33  0.00
  YS02001652YS02001649    1.00   0.00  0.00  0.00  0.99  0.01  0.00  0.00  0.65  0.00
  YS02001655YS02001652    1.00   0.00  0.00  0.00  0.46  0.00  0.00  0.54  0.03  0.00
  YS02001658YS02001655    1.00   0.00  0.14  0.00  0.73  0.13  0.00  0.00  0.57  0.00
  YS02001661YS02001658    1.00   0.14  0.00  0.00  0.50  0.35  0.00  0.00  0.59  0.00
  YS02001664YS02001661    1.00   0.14  0.00  0.00  0.69  0.17  0.00  0.00  0.73  0.00
  YS02001745YS02001748    1.00   0.00  0.00  0.00  0.29  0.01  0.00  0.70  0.04  0.00
  YS02001748YS02001751    1.00   0.00  0.00  0.00  0.88  0.12  0.00  0.00  0.68  0.00
  YS02001751YS02001754    1.00   0.00  0.00  0.00  0.42  0.02  0.00  0.56  0.04  0.00
  YS02001754YS02001757    1.00   0.00  0.00  0.00  1.00  0.00  0.00  0.00  0.69  0.00
  YS02001757CaochengTiaoxuchi    1.00   0.00  0.00  0.00  0.88  0.12  0.00  0.00  0.65  0.00
  YS02001759YS02001757    1.00   0.00  0.00  0.00  0.99  0.01  0.00  0.00  0.58  0.00
  YS02001762YS02001759    1.00   0.00  0.00  0.00  1.00  0.00  0.00  0.00  0.02  0.00
  YS02001765YS02001762    1.00   0.00  0.00  0.00  1.00  0.00  0.00  0.00  0.62  0.00
  YS02001767YS02001765    1.00   0.00  0.00  0.00  1.00  0.00  0.00  0.00  0.00  0.00
  YS02001770YS02001767    1.00   0.00  0.00  0.00  1.00  0.00  0.00  0.00  0.00  0.00
  YS02001774YS02001770    1.00   0.00  0.14  0.00  0.79  0.00  0.07  0.00  0.01  0.00
  YS02001779YS02001774    1.00   0.00  0.00  0.00  1.00  0.00  0.00  0.00  0.66  0.00
  YS02001783YS02001784    1.00   0.00  0.22  0.00  0.78  0.00  0.00  0.00  0.56  0.00
  YS02001784YS02001785    1.00   0.00  0.00  0.00  1.00  0.00  0.00  0.00  0.17  0.00
  YS02001786YS02001788    1.00   0.00  0.00  0.00  0.72  0.28  0.00  0.00  0.00  0.00
  YS02001788YS02001790    1.00   0.00  0.00  0.00  0.27  0.73  0.00  0.00  0.82  0.00
  YS02001790YS02001791    1.00   0.00  0.00  0.00  0.02  0.98  0.00  0.00  0.16  0.00
  YS02001791YS02001793    1.00   0.00  0.00  0.00  0.00  1.00  0.00  0.00  0.01  0.00
  YS02001793JiankangQianchi    1.00   0.00  0.00  0.00  0.96  0.04  0.00  0.00  0.98  0.00
  YS02001882YS02001884    1.00   0.15  0.01  0.00  0.84  0.00  0.00  0.00  0.00  0.00
  YS02001884YS02001887    1.00   0.11  0.03  0.00  0.87  0.00  0.00  0.00  0.00  0.00
  YS02001887YS02001890    1.00   0.00  0.00  0.00  0.92  0.00  0.08  0.00  0.00  0.00
  YS02001890YS02001895    1.00   0.00  0.16  0.00  0.84  0.00  0.00  0.00  0.00  0.00
  YS02001895YS02001898    1.00   0.17  0.01  0.00  0.77  0.00  0.06  0.00  0.00  0.00
  YS02001898YS02001901    1.00   0.17  0.01  0.00  0.82  0.00  0.00  0.00  0.01  0.00
  YS02001901YS02001904    1.00   0.17  0.00  0.00  0.83  0.00  0.00  0.00  0.00  0.00
  YS02001904YS02001907    1.00   0.00  0.17  0.00  0.83  0.00  0.00  0.00  0.00  0.00
  YS02001907YS02006553    1.00   0.00  0.05  0.00  0.95  0.00  0.00  0.00  0.00  0.00
  YS02001910YS02001907    1.00   0.00  0.00  0.00  0.93  0.01  0.00  0.06  0.12  0.00
  YS02001915YS02001910    1.00   0.00  0.00  0.00  0.94  0.06  0.00  0.00  0.16  0.00
  YS02001918YS02001915    1.00   0.00  0.00  0.00  0.95  0.05  0.00  0.00  0.77  0.00
  YS02001920YS02001918    1.00   0.00  0.00  0.00  1.00  0.00  0.00  0.00  0.01  0.00
  YS02001923YS02001920    1.00   0.00  0.00  0.00  1.00  0.00  0.00  0.00  0.93  0.00
  YS02001926YS02001923    1.00   0.00  0.11  0.00  0.07  0.00  0.82  0.00  0.00  0.00
  YS02001929YS02001926    1.00   0.00  0.14  0.00  0.86  0.00  0.00  0.00  0.83  0.00
  YS02006553YS02006556    1.00   0.01  0.00  0.00  0.99  0.00  0.00  0.00  0.03  0.00
  YS02006556YS02006558    1.00   0.00  0.00  0.00  1.00  0.00  0.00  0.00  0.00  0.00
  YS02006558YS02006561    1.00   0.21  0.00  0.00  0.07  0.72  0.00  0.00  0.19  0.00
  YS02006561YS02001783    1.00   0.21  0.00  0.00  0.10  0.68  0.00  0.00  0.70  0.00
  YS02163301YS02001633    1.00   0.00  0.14  0.00  0.86  0.00  0.00  0.00  0.00  0.00
  YS02163601YS02164001    1.00   0.00  0.12  0.00  0.88  0.00  0.00  0.00  0.00  0.00
  YS02164001YS02001641    1.00   0.00  0.11  0.00  0.88  0.00  0.00  0.00  0.05  0.00
  
  
  *************************
  Conduit Surcharge Summary
  *************************
  
  ----------------------------------------------------------------------------
                                                           Hours        Hours 
                         --------- Hours Full --------   Above Full   Capacity
  Conduit                Both Ends  Upstream  Dnstream   Normal Flow   Limited
  ----------------------------------------------------------------------------
  WS02003072WS02003073        0.01      0.01      0.01      0.79         0.01
  WS02004401WS02004402        0.01      0.01      0.01      0.01         0.01
  WS02004402WS02004403        0.01      0.01      0.01      0.01         0.01
  WS02004404WS02004405        0.01      0.01      0.01      3.38         0.01
  WS02004405WS02004406        0.01      0.01      0.01      0.38         0.01
  WS02006109WS02006110        0.34      0.35      2.34      0.43         0.01
  WS02006110WS02006113        0.01      0.01      2.32      0.01         0.01
  WS02006111WS02006112        0.01      0.01      2.55      0.01         0.01
  WS02006112WS02006115        0.01      0.01      0.57      0.01         0.01
  WS02006113WS02006111        0.01      0.01      0.01      0.01         0.01
  WS02006115WS02006116        0.01      0.01      0.01      0.01         0.01
  WS02006116WS02004401        0.01      0.01      0.01      0.02         0.01
  WS02006228WS02006109        2.30      2.34      2.30      2.80         2.30
  WS02006229WS02006228        2.29      2.30      2.29      2.51         2.29
  WS02006230WS02006229        2.38      2.48      2.38      3.54         2.38
  WS02006231WS02006230        0.35      0.35      0.58      3.35         0.01
  WS02006232WS02006231        0.51      0.51      2.34      0.56         0.01
  WS02006234WS02006232        2.23      2.23      2.34      0.53         0.51
  WS02006235WS02006234        0.69      0.70      2.24      3.25         0.03
  WS02006238WS02006235        2.27      2.27      2.34      0.01         0.02
  WS02006239WS02006238        2.29      2.30      2.30      2.40         2.13
  WS02006240WS02006239        2.26      2.29      2.26      2.40         2.07
  WS02006242WS02006240        2.29      2.29      2.33      2.55         0.01
  WS02006243WS02006242        2.29      2.29      2.31      0.01         0.08
  WS02006245WS02006243        2.28      2.28      2.28      2.06         1.89
  WS02006247WS02006245        2.28      2.28      2.28      3.20         2.24
  WS02006248WS02006247        2.27      2.27      2.28      0.01         0.09
  WS02006249WS02006248        2.27      2.27      2.27      3.16         0.01
  WS02006251WS02006249        2.27      2.28      2.27      2.46         2.20
  WS02006252WS02006251        2.53      2.53      2.60      2.53         0.01
  WS02006256WS02006235        3.25      3.29      6.44      0.77         0.01
  YS02001580YS02001583        1.56      1.56      1.62      0.01         0.01
  YS02001583YS02001586        1.57      1.57      1.69      0.01         0.01
  YS02001586YS02001590        1.70      1.70      1.77      0.01         0.01
  YS02001590YS02001593        1.77      1.77      1.80      1.77         0.01
  YS02001593YS02001596        1.79      1.79      1.89      0.01         0.01
  YS02001596YS02001600        1.94      1.94      2.02      0.01         0.01
  YS02001600YS02001601        2.07      2.07      2.27      0.01         0.01
  YS02001601YS02001602        2.20      2.20      2.29      1.99         0.01
  YS02001602YS02001605        2.17      2.17      2.20      2.85         0.01
  YS02001605YS02001607        2.14      2.17      2.16      2.15         2.06
  YS02001607YS02001610        1.79      1.79      1.82      0.01         0.01
  YS02001610YS02001613        1.79      1.79      1.82      0.01         0.01
  YS02001613YS02001616        1.75      1.75      1.79      0.01         0.01
  YS02001616YS02001619        1.74      1.74      1.75      0.56         0.48
  YS02001619YS02001622        1.73      1.74      1.74      1.70         1.57
  YS02001622YS02001625        1.74      1.74      1.93      0.01         0.01
  YS02001625YS02001629        1.66      1.66      1.93      0.01         0.01
  YS02001629YS02163301        1.94      1.94      1.96      0.52         0.21
  YS02001633YS02163601        1.99      1.99      2.04      0.29         0.29
  YS02001641YS02001644        1.93      1.95      1.93      2.32         1.85
  YS02001644YS02001647        1.64      1.64      1.93      0.01         0.01
  YS02001647YS02001649        1.64      1.64      1.78      0.01         0.01
  YS02001649YS02001757        1.77      1.78      1.85      0.30         0.16
  YS02001652YS02001649        1.61      1.61      1.78      0.17         0.17
  YS02001655YS02001652        1.42      1.42      1.58      0.17         0.17
  YS02001658YS02001655        1.20      1.20      1.42      0.13         0.13
  YS02001661YS02001658        0.51      0.51      1.20      0.11         0.11
  YS02001664YS02001661        0.29      0.29      0.65      0.01         0.01
  YS02001745YS02001748        0.29      0.29      1.00      0.01         0.01
  YS02001748YS02001751        1.18      1.18      1.34      0.04         0.04
  YS02001751YS02001754        1.34      1.34      1.51      0.03         0.02
  YS02001754YS02001757        1.56      1.56      1.85      0.01         0.01
  YS02001757CaochengTiaoxuchi        1.78      1.85      2.30      0.88         0.70
  YS02001759YS02001757        1.76      1.76      1.85      0.12         0.09
  YS02001762YS02001759        1.73      1.73      1.76      0.01         0.01
  YS02001765YS02001762        1.69      1.69      1.73      0.01         0.01
  YS02001767YS02001765        1.66      1.66      1.69      0.01         0.02
  YS02001770YS02001767        1.66      1.66      1.66      1.41         0.90
  YS02001774YS02001770        1.64      1.64      1.71      0.01         0.01
  YS02001779YS02001774        1.50      1.50      1.71      0.01         0.01
  YS02001783YS02001784        0.44      0.46      0.44      0.58         0.44
  YS02001784YS02001785        0.34      0.44      0.34      0.79         0.34
  YS02001786YS02001788        0.01      0.34      0.01      0.67         0.01
  YS02001790YS02001791        0.01      0.01      0.01      0.42         0.01
  YS02001793JiankangQianchi        0.01      0.01      5.84      0.01         0.01
  YS02001882YS02001884        0.41      0.41      0.42      0.01         0.01
  YS02001884YS02001887        0.44      0.44      0.45      0.01         0.01
  YS02001887YS02001890        0.46      0.46      0.47      0.05         0.01
  YS02001890YS02001895        0.40      0.40      0.49      0.01         0.01
  YS02001895YS02001898        0.39      0.39      0.40      0.01         0.01
  YS02001898YS02001901        0.40      0.40      0.44      0.01         0.01
  YS02001901YS02001904        0.43      0.43      0.44      0.01         0.01
  YS02001904YS02001907        0.43      0.43      0.65      0.01         0.01
  YS02001907YS02006553        0.81      0.81      0.87      0.01         0.01
  YS02001910YS02001907        0.49      0.49      0.63      0.01         0.01
  YS02001915YS02001910        0.41      0.41      0.49      0.01         0.01
  YS02001918YS02001915        0.33      0.33      0.41      0.01         0.01
  YS02001920YS02001918        0.33      0.33      0.34      0.01         0.01
  YS02001923YS02001920        0.28      0.28      0.34      0.01         0.01
  YS02001926YS02001923        0.01      0.01      0.02      0.01         0.01
  YS02001929YS02001926        0.01      0.01      0.02      0.01         0.01
  YS02006553YS02006556        0.56      0.56      0.65      0.01         0.01
  YS02006556YS02006558        0.60      0.60      0.67      0.01         0.01
  YS02006558YS02006561        0.36      0.55      0.36      0.75         0.36
  YS02006561YS02001783        0.29      0.29      0.46      0.01         0.01
  YS02163301YS02001633        1.96      1.96      2.01      0.25         0.01
  YS02163601YS02164001        1.94      1.94      2.04      0.21         0.01
  YS02164001YS02001641        1.94      1.94      1.95      0.88         0.82
  
  
  ***************
  Pumping Summary
  ***************
  
  ---------------------------------------------------------------------------------------------------------
                                                  Min       Avg       Max     Total     Power    % Time Off
                        Percent   Number of      Flow      Flow      Flow    Volume     Usage    Pump Curve
  Pump                 Utilized   Start-Ups       LPS       LPS       LPS  10^6 ltr     Kw-hr    Low   High
  ---------------------------------------------------------------------------------------------------------
  CC-R1                   31.25          38      0.00    683.00    683.00     6.148    120.04    0.0   51.4
  CC-R2                   40.33          59      0.00    683.00    683.00     7.932    149.70    0.0   65.1
  CC-S1                   38.63          63      0.00    200.00    200.00     2.225     10.83    0.0   30.8
  CC-S2                   33.79          19      0.00    200.00    200.00     1.947      9.05    0.0   35.2
  JK-R1                    5.69         124      0.00   1000.00   1000.00     1.639     12.94    0.0    0.0
  JK-R2                    4.55         130      0.00   1000.00   1000.00     1.311      8.10    0.0    0.0
  JK-S                     9.01          70      0.00    300.00    300.00     0.778     14.28    0.0    0.0
  

  Analysis begun on:  Wed Aug  9 16:38:46 2023
  Analysis ended on:  Wed Aug  9 16:39:25 2023
  Total elapsed time: 00:00:39