
  OWA STORM WATER MANAGEMENT MODEL - VERSION v5.1.14 (OWA 2022-07-31)
  --------------------------------------------------------------

  WARNING 04: minimum elevation drop used for Conduit WS02004404WS02004405
  WARNING 03: negative offset ignored for Link YS02001904YS02001907
  
  *********************************************************
  NOTE: The summary statistics displayed in this report are
  based on results found at every computational time step,  
  not just on results from each reporting time step.
  *********************************************************
  
  ****************
  Analysis Options
  ****************
  Flow Units ............... LPS
  Process Models:
    Rainfall/Runoff ........ YES
    RDII ................... NO
    Snowmelt ............... NO
    Groundwater ............ NO
    Flow Routing ........... YES
    Ponding Allowed ........ NO
    Water Quality .......... NO
  Infiltration Method ...... HORTON
  Flow Routing Method ...... DYNWAVE
  Surcharge Method ......... EXTRAN
  Starting Date ............ 08/28/2015 08:00:00
  Ending Date .............. 08/28/2015 16:00:00
  Antecedent Dry Days ...... 8.0
  Report Time Step ......... 00:01:00
  Wet Time Step ............ 00:01:00
  Dry Time Step ............ 00:01:00
  Routing Time Step ........ 30.00 sec
  Variable Time Step ....... YES
  Maximum Trials ........... 8
  Number of Threads ........ 4
  Head Tolerance ........... 0.001500 m
  
  
  **************************        Volume         Depth
  Runoff Quantity Continuity     hectare-m            mm
  **************************     ---------       -------
  Total Precipitation ......         5.410        89.304
  Evaporation Loss .........         0.000         0.000
  Infiltration Loss ........         0.251         4.137
  Surface Runoff ...........         5.100        84.181
  Final Storage ............         0.061         1.007
  Continuity Error (%) .....        -0.024
  
  
  **************************        Volume        Volume
  Flow Routing Continuity        hectare-m      10^6 ltr
  **************************     ---------     ---------
  Dry Weather Inflow .......         0.630         6.296
  Wet Weather Inflow .......         5.100        50.996
  Groundwater Inflow .......         0.000         0.000
  RDII Inflow ..............         0.000         0.000
  External Inflow ..........         0.105         1.045
  External Outflow .........         2.862        28.620
  Flooding Loss ............         2.970        29.698
  Evaporation Loss .........         0.000         0.000
  Exfiltration Loss ........         0.000         0.000
  Initial Stored Volume ....         0.303         3.031
  Final Stored Volume ......         0.321         3.207
  Continuity Error (%) .....        -0.256
  
  
  *************************
  Highest Continuity Errors
  *************************
  Node YS02001583 (-11.24%)
  Node YS02001884 (4.64%)
  Node WS02006252 (-1.60%)
  Node HS02004842 (1.17%)
  Node WS02006256 (-1.04%)
  
  
  ***************************
  Time-Step Critical Elements
  ***************************
  Link WS02006280WS02006229 (45.44%)
  Link WS02006252WS02006251 (17.58%)
  Link WS02006238WS02006235 (5.43%)
  Link YS02001791YS02001793 (5.36%)
  Link WS02004404WS02004405 (4.75%)
  
  
  ********************************
  Highest Flow Instability Indexes
  ********************************
  Link WS02006238WS02006235 (28)
  Link WS02006252WS02006251 (28)
  Link WS02006256WS02006235 (28)
  Link WS02004404WS02004405 (27)
  Link WS02006113WS02006111 (27)
  
  
  *************************
  Routing Time Step Summary
  *************************
  Minimum Time Step           :     0.00 sec
  Average Time Step           :     2.35 sec
  Maximum Time Step           :     7.27 sec
  Percent in Steady State     :     0.00
  Average Iterations per Step :     4.46
  Percent Not Converging      :    26.37
  
  
  ***************************
  Subcatchment Runoff Summary
  ***************************
  
  ------------------------------------------------------------------------------------------------------------------------------
                            Total      Total      Total      Total     Imperv       Perv      Total       Total     Peak  Runoff
                           Precip      Runon       Evap      Infil     Runoff     Runoff     Runoff      Runoff   Runoff   Coeff
  Subcatchment                 mm         mm         mm         mm         mm         mm         mm    10^6 ltr      LPS
  ------------------------------------------------------------------------------------------------------------------------------
  sub0                      99.00       0.00       0.00       1.04      90.83       5.89      96.73        0.08    55.64   0.977
  sub1                      99.00       0.00       0.00       1.79      86.87       9.10      95.97        0.64   403.89   0.969
  sub10                     99.00       0.00       0.00       1.26      89.81       6.66      96.47        1.06   682.75   0.974
  sub11                     99.00       0.00       0.00       1.24      89.83       6.69      96.51        1.12   746.19   0.975
  sub12                     99.00       0.00       0.00       2.01      84.97      10.86      95.83        0.84   585.41   0.968
  sub14                     99.00       0.00       0.00       1.41      88.84       7.50      96.34        0.92   600.25   0.973
  sub15                     99.00       0.00       0.00       5.63      68.34      24.08      92.41        1.59   979.99   0.933
  sub16                     99.00       0.00       0.00       5.79      65.43      26.89      92.32        0.97   640.29   0.932
  sub17                     99.00       0.00       0.00       5.65      66.40      26.04      92.44        0.79   521.50   0.934
  sub2                      99.00       0.00       0.00       8.09      61.47      28.54      90.01        0.84   451.17   0.909
  sub22                     99.00       0.00       0.00       8.55      55.65      34.02      89.68        5.66  3376.75   0.906
  sub23                     99.00       0.00       0.00       6.95      61.52      29.68      91.20        4.35  2721.74   0.921
  sub3                      99.00       0.00       0.00       8.83      61.43      27.80      89.23        2.01   993.63   0.901
  sub4                      99.00       0.00       0.00       2.02      86.69       8.87      95.56        1.99  1050.27   0.965
  sub5                      99.00       0.00       0.00       1.10      90.77       5.83      96.61        1.09   693.03   0.976
  sub60                     81.29       0.00       0.00       1.84      70.34       7.91      78.26        1.03   669.49   0.963
  sub61                     81.29       0.00       0.00       2.67      66.35      11.16      77.51        1.42   924.88   0.953
  sub62                     81.29       0.00       0.00       1.23      73.51       5.28      78.79        2.16  1299.42   0.969
  sub63                     81.29       0.00       0.00       4.89      56.75      18.69      75.44        1.71  1020.95   0.928
  sub64                     81.29       0.00       0.00       2.48      67.90       9.72      77.62        1.86  1048.70   0.955
  sub65                     81.29       0.00       0.00       2.14      69.48       8.43      77.90        2.14  1169.36   0.958
  sub66                     81.29       0.00       0.00       6.00      56.65      17.58      74.23        3.46  1504.37   0.913
  sub67                     81.29       0.00       0.00       1.19      73.55       5.32      78.88        1.47  1019.28   0.970
  sub68                     81.29       0.00       0.00       2.21      68.73       9.18      77.91        2.14  1334.31   0.958
  sub69                     81.29       0.00       0.00       1.96      68.99      10.23      79.23        2.93  1562.26   0.975
  sub7                      99.00       0.00       0.00       1.39      88.86       7.52      96.38        0.32   219.44   0.974
  sub70                     81.29       0.00       0.00       6.47      53.49      21.17      74.66        2.16   846.31   0.918
  sub71                     81.29       0.00       0.00       1.26      73.47       5.25      78.72        2.06  1136.61   0.968
  sub72                     81.29       0.00       0.00       1.12      74.20       4.57      78.78        1.08   545.10   0.969
  sub8                      99.00       0.00       0.00       1.41      88.85       7.51      96.35        0.62   406.71   0.973
  sub9                      99.00       0.00       0.00       1.41      88.84       7.50      96.34        0.46   304.58   0.973
  
  
  ******************
  Node Depth Summary
  ******************
  
  ---------------------------------------------------------------------------------
                                 Average  Maximum  Maximum  Time of Max    Reported
                                   Depth    Depth      HGL   Occurrence   Max Depth
  Node                 Type       Meters   Meters   Meters  days hr:min      Meters
  ---------------------------------------------------------------------------------
  HS02004478           JUNCTION     0.32     1.80    11.03     0  02:28        1.80
  HS02004479           JUNCTION     0.40     1.73    10.94     0  02:06        1.68
  HS02004480           JUNCTION     0.37     1.71    10.95     0  02:06        1.63
  HS02004770           JUNCTION     0.36     1.42    11.25     0  02:03        1.42
  HS02004777           JUNCTION     0.38     1.48    11.28     0  02:03        1.48
  HS02004785           JUNCTION     0.27     1.40    11.30     0  02:03        1.38
  HS02004788           JUNCTION     0.24     1.42    11.32     0  02:03        1.42
  HS02004792           JUNCTION     0.31     1.60    11.12     0  02:06        1.60
  HS02004799           JUNCTION     0.44     1.76    10.97     0  02:06        1.76
  HS02004802           JUNCTION     0.43     1.92    11.05     0  02:28        1.92
  HS02004807           JUNCTION     0.41     1.92    11.09     0  02:06        1.92
  HS02004817           JUNCTION     0.71     2.44    11.29     0  02:28        2.42
  HS02004824           JUNCTION     0.28     2.01    11.41     0  02:19        2.01
  HS02004830           JUNCTION     0.28     2.03    11.50     0  02:24        2.03
  HS02004837           JUNCTION     0.25     2.02    11.60     0  02:24        2.02
  HS02004842           JUNCTION     0.53     2.22    11.49     0  02:06        2.22
  HS02004848           JUNCTION     0.23     2.06    11.66     0  02:24        2.06
  HS02004852           JUNCTION     0.24     2.11    11.62     0  02:28        2.06
  HS02004856           JUNCTION     0.29     2.07    11.50     0  02:24        2.07
  HS02004862           JUNCTION     0.25     2.00    11.38     0  02:19        2.00
  HS02004870           JUNCTION     0.25     2.10    11.39     0  02:24        2.10
  HS02004876           JUNCTION     0.30     2.26    11.29     0  02:24        2.26
  HS02004881           JUNCTION     0.23     2.11    11.14     0  02:28        1.99
  HS02004901           JUNCTION     0.36     1.42    11.24     0  02:03        1.42
  WS02001211           JUNCTION     0.63     0.83     5.67     0  02:27        0.83
  WS02001212           JUNCTION     0.38     0.59     5.66     0  02:27        0.59
  WS02001213           JUNCTION     0.60     0.89     5.65     0  02:27        0.89
  WS02003059           JUNCTION     0.66     0.96     5.65     0  02:26        0.96
  WS02003060           JUNCTION     0.39     0.71     5.64     0  02:26        0.71
  WS02003066           JUNCTION     0.24     0.47     6.03     0  02:25        0.47
  WS02003067           JUNCTION     0.55     0.90     6.22     0  02:24        0.90
  WS02003069           JUNCTION     0.44     0.80     5.39     0  02:26        0.80
  WS02003072           JUNCTION     0.50     0.83     5.20     0  02:26        0.83
  WS02003073           JUNCTION     0.30     0.53     4.59     0  02:27        0.53
  WS02004138           JUNCTION     0.13     0.14     7.39     0  00:29        0.14
  WS02004139           JUNCTION     0.57     0.77     5.68     0  02:27        0.77
  WS02004401           JUNCTION     0.82     2.31     8.31     0  02:28        2.16
  WS02004402           JUNCTION     0.83     2.26     8.22     0  02:28        2.07
  WS02004403           JUNCTION     0.83     2.16     8.09     0  02:28        1.97
  WS02004404           JUNCTION     0.89     2.14     7.99     0  02:28        1.93
  WS02004405           JUNCTION     0.87     2.05     7.90     0  02:28        1.93
  WS02004406           JUNCTION     0.86     1.81     7.64     0  02:25        1.81
  WS02004407           JUNCTION     0.30     1.08     7.39     0  02:25        1.06
  WS02004409           JUNCTION     0.58     1.50     7.27     0  02:25        1.50
  WS02004410           JUNCTION     0.58     1.47     7.19     0  02:28        1.47
  WS02004411           JUNCTION     0.57     1.28     6.96     0  02:24        1.28
  WS02004412           JUNCTION     0.57     1.15     6.79     0  02:25        1.15
  WS02004413           JUNCTION     0.69     1.17     6.64     0  02:25        1.17
  WS02006109           JUNCTION     1.08     2.64     9.26     0  02:06        2.64
  WS02006110           JUNCTION     1.00     2.50     9.09     0  02:28        2.45
  WS02006111           JUNCTION     0.52     2.03     8.74     0  02:28        2.02
  WS02006112           JUNCTION     1.05     2.68     8.56     0  02:24        2.68
  WS02006113           JUNCTION     0.59     2.03     8.93     0  02:28        2.01
  WS02006115           JUNCTION     0.77     2.36     8.50     0  02:28        2.26
  WS02006116           JUNCTION     0.82     2.37     8.41     0  02:28        2.25
  WS02006228           JUNCTION     1.16     3.03     9.68     0  02:06        3.03
  WS02006229           JUNCTION     1.18     3.25     9.94     0  02:06        3.22
  WS02006230           JUNCTION     1.08     2.65     9.39     0  01:29        2.65
  WS02006231           JUNCTION     0.80     2.24     9.36     0  01:29        2.24
  WS02006232           JUNCTION     0.88     2.18     9.22     0  01:29        2.18
  WS02006234           JUNCTION     0.75     1.96     9.12     0  01:28        1.96
  WS02006235           JUNCTION     0.76     2.00     9.16     0  01:29        2.00
  WS02006238           JUNCTION     0.78     2.15     9.29     0  01:28        2.04
  WS02006239           JUNCTION     0.71     2.03     9.24     0  01:29        2.03
  WS02006240           JUNCTION     0.65     2.10     9.39     0  01:29        1.77
  WS02006242           JUNCTION     0.67     1.55     8.82     0  01:29        1.55
  WS02006243           JUNCTION     0.56     1.48     8.90     0  01:30        1.48
  WS02006245           JUNCTION     0.53     1.56     9.04     0  01:30        1.29
  WS02006247           JUNCTION     0.54     1.47     8.97     0  01:30        1.39
  WS02006248           JUNCTION     0.48     1.10     8.69     0  01:30        1.10
  WS02006249           JUNCTION     0.50     1.09     8.69     0  01:30        1.09
  WS02006251           JUNCTION     0.67     2.21     9.88     0  01:31        2.21
  WS02006252           JUNCTION     0.46     1.50     9.74     0  00:00        1.50
  WS02006253           JUNCTION     0.79     3.52    11.16     0  01:31        3.28
  WS02006256           JUNCTION     1.12     2.35     9.28     0  00:00        2.35
  WS02006280           JUNCTION     0.40     1.82    10.09     0  02:28        1.74
  WS02006284           JUNCTION     0.65     2.04    10.44     0  02:28        1.96
  WS02006287           JUNCTION     0.40     1.81    10.77     0  02:28        1.74
  WSF200               JUNCTION     0.24     0.54     5.78     0  02:25        0.54
  YS02001580           JUNCTION     0.12     1.05     9.59     0  01:33        1.05
  YS02001583           JUNCTION     0.15     1.14     9.64     0  01:33        1.14
  YS02001586           JUNCTION     0.25     1.13     9.30     0  01:33        1.13
  YS02001590           JUNCTION     0.36     1.40     9.26     0  01:33        1.37
  YS02001593           JUNCTION     0.29     1.39     9.25     0  01:33        1.30
  YS02001596           JUNCTION     0.39     1.80     9.22     0  01:49        1.80
  YS02001600           JUNCTION     0.47     1.87     9.00     0  01:33        1.87
  YS02001601           JUNCTION     0.67     2.06     8.90     0  01:33        2.06
  YS02001602           JUNCTION     0.57     1.87     8.77     0  01:33        1.87
  YS02001605           JUNCTION     0.53     1.78     8.68     0  01:33        1.77
  YS02001607           JUNCTION     0.50     1.68     8.53     0  01:49        1.65
  YS02001610           JUNCTION     0.54     1.68     8.48     0  01:33        1.68
  YS02001613           JUNCTION     0.50     1.70     8.54     0  01:33        1.68
  YS02001616           JUNCTION     0.44     1.61     8.52     0  01:33        1.61
  YS02001619           JUNCTION     0.41     1.61     8.54     0  01:33        1.61
  YS02001622           JUNCTION     0.40     1.62     8.52     0  01:33        1.58
  YS02001625           JUNCTION     0.65     1.78     8.38     0  01:34        1.78
  YS02001629           JUNCTION     0.53     1.85     8.40     0  01:34        1.85
  YS02001633           JUNCTION     0.60     2.06     8.52     0  01:36        2.06
  YS02001641           JUNCTION     0.58     1.96     8.40     0  01:49        1.94
  YS02001644           JUNCTION     0.57     1.92     8.35     0  01:35        1.92
  YS02001647           JUNCTION     0.35     1.79     8.40     0  01:37        1.79
  YS02001649           JUNCTION     0.39     2.05     8.44     0  01:36        2.05
  YS02001652           JUNCTION     0.27     2.15     8.75     0  01:37        1.92
  YS02001655           JUNCTION     0.20     2.20     9.05     0  01:37        1.76
  YS02001658           JUNCTION     0.15     2.19     9.33     0  01:37        1.56
  YS02001661           JUNCTION     0.17     2.15     9.55     0  01:37        1.36
  YS02001664           JUNCTION     0.08     1.75     9.68     0  01:37        0.79
  YS02001745           JUNCTION     0.08     2.35     9.87     0  01:36        0.96
  YS02001748           JUNCTION     0.14     2.27     9.35     0  01:36        1.35
  YS02001751           JUNCTION     0.17     2.20     9.08     0  01:36        1.51
  YS02001754           JUNCTION     0.22     2.20     8.81     0  01:36        1.75
  YS02001757           JUNCTION     0.39     2.21     8.47     0  01:36        2.06
  YS02001759           JUNCTION     0.33     2.21     8.57     0  01:36        2.12
  YS02001762           JUNCTION     0.32     2.15     8.55     0  01:36        2.15
  YS02001765           JUNCTION     0.30     2.10     8.55     0  01:35        2.10
  YS02001767           JUNCTION     0.30     2.03     8.52     0  01:35        2.03
  YS02001770           JUNCTION     0.32     1.95     8.44     0  01:35        1.95
  YS02001774           JUNCTION     0.38     2.05     8.47     0  01:35        2.05
  YS02001779           JUNCTION     0.21     1.68     8.37     0  01:35        1.68
  YS02001783           JUNCTION     0.29     1.43     7.57     0  01:49        1.43
  YS02001784           JUNCTION     0.30     1.31     7.38     0  01:49        1.12
  YS02001786           JUNCTION     0.25     1.02     7.05     0  01:34        0.89
  YS02001788           JUNCTION     0.18     0.63     6.60     0  01:36        0.62
  YS02001790           JUNCTION     0.21     0.72     6.37     0  01:44        0.72
  YS02001791           JUNCTION     0.14     0.44     5.91     0  01:46        0.42
  YS02001793           JUNCTION     0.07     0.30     5.13     0  01:39        0.29
  YS02001882           JUNCTION     0.37     1.83     8.55     0  01:34        1.83
  YS02001884           JUNCTION     0.46     1.93     8.55     0  01:34        1.93
  YS02001887           JUNCTION     0.53     2.00     8.54     0  01:36        2.00
  YS02001890           JUNCTION     0.56     1.81     8.32     0  01:34        1.81
  YS02001895           JUNCTION     0.34     1.65     8.40     0  01:34        1.58
  YS02001898           JUNCTION     0.34     1.77     8.51     0  01:34        1.57
  YS02001901           JUNCTION     0.45     1.74     8.34     0  02:00        1.74
  YS02001904           JUNCTION     0.43     1.73     8.36     0  01:49        1.73
  YS02001907           JUNCTION     0.74     1.96     8.25     0  01:35        1.96
  YS02001910           JUNCTION     0.55     2.02     8.53     0  01:36        2.02
  YS02001915           JUNCTION     0.37     2.00     8.72     0  01:36        2.00
  YS02001918           JUNCTION     0.21     1.81     8.88     0  01:35        1.81
  YS02001920           JUNCTION     0.30     2.14     9.15     0  01:35        2.04
  YS02001923           JUNCTION     0.17     2.03     9.29     0  01:35        1.94
  YS02001926           JUNCTION     0.20     1.90     9.35     0  01:35        1.90
  YS02001929           JUNCTION     0.12     1.78     9.47     0  01:35        1.78
  YS02006553           JUNCTION     0.74     2.11     8.39     0  01:36        2.11
  YS02006556           JUNCTION     0.72     2.22     8.53     0  01:36        2.22
  YS02006558           JUNCTION     0.76     2.36     8.62     0  01:36        2.36
  YS02006561           JUNCTION     0.19     1.01     7.67     0  01:36        0.90
  YS02163301           JUNCTION     0.55     1.94     8.45     0  01:36        1.92
  YS02163601           JUNCTION     0.64     2.08     8.48     0  01:35        2.02
  YS02164001           JUNCTION     0.57     1.98     8.44     0  01:35        1.95
  YSB1154              JUNCTION     0.55     2.10    11.16     0  02:24        2.10
  YSB1171              JUNCTION     0.68     1.95    10.85     0  02:06        1.95
  YSB1174              JUNCTION     0.49     1.95    11.06     0  02:24        1.95
  YSB6556              JUNCTION     0.44     1.80    10.97     0  02:22        1.80
  CC-1                 OUTFALL      0.00     0.00     0.00     0  00:00        0.00
  CC-2                 OUTFALL      0.00     0.00     0.00     0  00:00        0.00
  JK-1                 OUTFALL      0.00     0.00     0.00     0  00:00        0.00
  JK-2                 OUTFALL      0.00     0.00     0.00     0  00:00        0.00
  WSC                  OUTFALL      0.30     0.53     1.20     0  02:27        0.53
  CC-storage           STORAGE      0.66     1.30     6.80     0  02:10        1.30
  JK-storage           STORAGE      1.33     4.24     5.04     0  01:39        4.13
  XR-storage           STORAGE      7.76     9.26     7.26     0  08:00        9.26
  
  
  *******************
  Node Inflow Summary
  *******************
  
  -------------------------------------------------------------------------------------------------
                                  Maximum  Maximum                  Lateral       Total        Flow
                                  Lateral    Total  Time of Max      Inflow      Inflow     Balance
                                   Inflow   Inflow   Occurrence      Volume      Volume       Error
  Node                 Type           LPS      LPS  days hr:min    10^6 ltr    10^6 ltr     Percent
  -------------------------------------------------------------------------------------------------
  HS02004478           JUNCTION      0.00  2379.47     0  02:28           0        11.2      -0.010
  HS02004479           JUNCTION      0.00   377.63     0  02:10           0        1.12       0.035
  HS02004480           JUNCTION      0.00  2003.47     0  02:06           0        8.16       0.003
  HS02004770           JUNCTION   2721.74  2757.51     0  02:25        4.35        4.62       0.057
  HS02004777           JUNCTION      0.03   683.74     0  02:04    0.000864         2.2       0.235
  HS02004785           JUNCTION      0.15   682.93     0  02:04     0.00432         2.2       0.009
  HS02004788           JUNCTION    981.66   981.66     0  02:25        1.64        3.83      -0.000
  HS02004792           JUNCTION   3377.03  4324.12     0  02:25        5.67         9.5      -0.006
  HS02004799           JUNCTION    600.25  1742.34     0  02:25       0.917        7.56       0.034
  HS02004802           JUNCTION      0.00  1261.91     0  02:28           0        3.32       0.104
  HS02004807           JUNCTION    746.19  1942.71     0  02:25        1.12        3.76       0.084
  HS02004817           JUNCTION      0.60  1211.97     0  02:28      0.0173        2.69       0.609
  HS02004824           JUNCTION   1050.32  1644.15     0  02:25           2        3.09       0.008
  HS02004830           JUNCTION      0.15   608.06     0  02:24     0.00432        1.33       0.070
  HS02004837           JUNCTION    689.10   689.10     0  02:25        1.25        1.73       0.022
  HS02004842           JUNCTION      0.00   686.38     0  02:06           0        1.08       1.182
  HS02004848           JUNCTION    993.63   993.63     0  02:26        2.01        2.67      -0.016
  HS02004852           JUNCTION      0.00   864.59     0  02:06           0        2.28      -0.019
  HS02004856           JUNCTION    304.58   909.67     0  02:05       0.463        2.74       0.054
  HS02004862           JUNCTION    451.37  1271.14     0  02:25       0.845        3.59      -0.012
  HS02004870           JUNCTION    406.71  1271.67     0  02:31       0.616        4.02       0.004
  HS02004876           JUNCTION    403.89  1537.14     0  02:28       0.638        4.66       0.000
  HS02004881           JUNCTION    219.44  1700.08     0  02:24       0.325        4.98      -0.003
  HS02004901           JUNCTION    640.29   906.08     0  02:25       0.967        1.54       0.103
  WS02001211           JUNCTION      7.35   208.10     0  03:09       0.212        5.44       0.611
  WS02001212           JUNCTION      0.00   217.48     0  03:08           0        5.41       0.291
  WS02001213           JUNCTION      0.00   223.34     0  03:08           0        5.39       0.332
  WS02003059           JUNCTION      0.00   231.16     0  03:08           0        5.38       0.595
  WS02003060           JUNCTION     16.53  1584.23     0  02:25       0.476        14.9       0.098
  WS02003066           JUNCTION      0.00  1386.92     0  02:25           0        9.12       0.016
  WS02003067           JUNCTION      0.00  1388.30     0  02:25           0        9.12       0.048
  WS02003069           JUNCTION      0.32  1579.93     0  02:26     0.00922        14.9       0.103
  WS02003072           JUNCTION      0.00  1578.59     0  02:26           0        14.9       0.140
  WS02003073           JUNCTION      1.82  1580.28     0  02:27      0.0524        14.9       0.145
  WS02004138           JUNCTION      0.00   380.00     0  00:00           0        5.25       0.053
  WS02004139           JUNCTION      0.32   191.26     0  00:29     0.00924        5.26       0.510
  WS02004401           JUNCTION      0.00  1384.38     0  02:25           0        9.23       0.118
  WS02004402           JUNCTION      0.00  1384.67     0  02:25           0        9.22       0.118
  WS02004403           JUNCTION      0.00  1385.78     0  02:25           0        9.21       0.116
  WS02004404           JUNCTION      0.16  1386.34     0  02:25     0.00467         9.2       0.097
  WS02004405           JUNCTION      0.04  1387.44     0  02:25      0.0011         9.2       0.142
  WS02004406           JUNCTION      0.00  1388.11     0  02:25           0        9.18       0.235
  WS02004407           JUNCTION      0.00  1388.41     0  02:25           0        9.16       0.017
  WS02004409           JUNCTION      0.00  1386.10     0  02:25           0        9.16       0.034
  WS02004410           JUNCTION      0.00  1386.28     0  02:25           0        9.16       0.054
  WS02004411           JUNCTION      0.00  1386.33     0  02:25           0        9.15       0.066
  WS02004412           JUNCTION      0.00  1386.35     0  02:25           0        9.15       0.087
  WS02004413           JUNCTION      0.00  1387.57     0  02:25           0        9.14       0.153
  WS02006109           JUNCTION      1.23  1289.06     0  02:31      0.0354           9       0.112
  WS02006110           JUNCTION      0.00  1127.07     0  02:45           0        8.48       0.095
  WS02006111           JUNCTION      0.00  1127.37     0  02:46           0        8.47       0.015
  WS02006112           JUNCTION    521.50  1385.94     0  02:28       0.793        9.26       0.201
  WS02006113           JUNCTION      0.00  1127.19     0  02:45           0        8.47       0.023
  WS02006115           JUNCTION      0.00  1384.51     0  02:25           0        9.24       0.079
  WS02006116           JUNCTION      0.00  1384.41     0  02:25           0        9.24       0.059
  WS02006228           JUNCTION      0.00  1297.26     0  02:28           0        8.97       0.060
  WS02006229           JUNCTION      0.00  2320.33     0  02:28           0        12.4       0.058
  WS02006230           JUNCTION     10.28  1026.77     0  02:28       0.296        4.78       0.174
  WS02006231           JUNCTION      0.00   453.32     0  02:05           0        3.01      -0.102
  WS02006232           JUNCTION      0.00   454.74     0  02:28           0           3       0.118
  WS02006234           JUNCTION      0.00   453.14     0  02:27           0        2.99      -0.149
  WS02006235           JUNCTION      0.00   437.92     0  03:25           0         2.9       0.065
  WS02006238           JUNCTION      0.00   416.27     0  02:53           0        2.65      -0.181
  WS02006239           JUNCTION      0.00   415.44     0  02:07           0        2.63      -0.098
  WS02006240           JUNCTION      0.00   414.94     0  02:07           0        2.62      -0.033
  WS02006242           JUNCTION      0.00   415.18     0  02:07           0        2.62       0.005
  WS02006243           JUNCTION      0.00   290.31     0  00:06           0        2.09      -0.111
  WS02006245           JUNCTION      0.00   317.98     0  01:30           0         2.1       0.397
  WS02006247           JUNCTION      0.00   344.95     0  01:30           0         2.1       0.055
  WS02006248           JUNCTION      0.00   439.84     0  01:30           0        2.45      -0.016
  WS02006249           JUNCTION      0.00  1391.84     0  02:25           0        6.92       0.075
  WS02006251           JUNCTION      0.08  1759.21     0  02:25     0.00222         7.3       0.032
  WS02006252           JUNCTION      0.00   969.68     0  02:25           0         3.7      -1.577
  WS02006253           JUNCTION     55.64  1757.28     0  02:25      0.0783        5.13       0.014
  WS02006256           JUNCTION      0.00   450.00     0  00:11           0        1.36      -1.025
  WS02006280           JUNCTION      0.00  2320.23     0  02:28           0        11.2      -0.002
  WS02006284           JUNCTION      0.10  2343.44     0  02:28     0.00275        11.2       0.006
  WS02006287           JUNCTION      0.00  2364.87     0  02:28           0        11.2       0.004
  WSF200               JUNCTION      0.00  1386.84     0  02:25           0        9.12       0.009
  YS02001580           JUNCTION      0.00   171.16     0  01:33           0     0.00462      -3.478
  YS02001583           JUNCTION      0.00   270.91     0  01:33           0       0.015     -10.108
  YS02001586           JUNCTION    846.31   846.31     0  01:42        2.16        2.17       0.086
  YS02001590           JUNCTION      0.00   324.35     0  01:49           0        1.55      -0.025
  YS02001593           JUNCTION      0.00   324.68     0  01:49           0        1.55       0.019
  YS02001596           JUNCTION      0.00   321.76     0  01:49           0        1.55       0.002
  YS02001600           JUNCTION      0.00   319.55     0  01:49           0        1.55       0.005
  YS02001601           JUNCTION   1562.26  1879.52     0  01:40        2.93        4.48       0.022
  YS02001602           JUNCTION      0.00   578.43     0  01:33           0        2.57       0.018
  YS02001605           JUNCTION      0.00   578.53     0  01:33           0        2.43       0.023
  YS02001607           JUNCTION      0.00   578.11     0  01:33           0        2.43       0.085
  YS02001610           JUNCTION      0.00   849.04     0  01:42           0        2.85       0.089
  YS02001613           JUNCTION      0.00   512.31     0  01:42           0        2.24       0.081
  YS02001616           JUNCTION      0.00   512.16     0  01:42           0        2.24       0.016
  YS02001619           JUNCTION   1504.37  1504.37     0  01:42        3.46        5.28       0.002
  YS02001622           JUNCTION      0.00   997.21     0  01:41           0        4.86      -0.002
  YS02001625           JUNCTION      0.00  1409.01     0  01:43           0        5.12       0.184
  YS02001629           JUNCTION      0.00   904.36     0  01:33           0        4.04       0.002
  YS02001633           JUNCTION   1169.56  1430.64     0  01:35        2.15        5.81       0.063
  YS02001641           JUNCTION      0.00  1431.68     0  01:35           0        5.45       0.055
  YS02001644           JUNCTION   1048.74  1970.87     0  01:35        1.87        7.31       0.050
  YS02001647           JUNCTION      0.00  1971.35     0  01:35           0        6.72       0.007
  YS02001649           JUNCTION      0.00  2239.34     0  01:35           0        8.44       0.010
  YS02001652           JUNCTION      0.00  1093.64     0  01:37           0        1.72      -0.126
  YS02001655           JUNCTION      0.15  1091.50     0  01:37     0.00443        1.72      -0.003
  YS02001658           JUNCTION      0.00  1091.41     0  01:37           0        1.71      -0.054
  YS02001661           JUNCTION      0.00  1089.47     0  01:37           0        1.71       0.010
  YS02001664           JUNCTION   1020.95  1020.95     0  01:39        1.71        1.71      -0.035
  YS02001745           JUNCTION    669.49   689.37     0  01:36        1.03        1.03       0.115
  YS02001748           JUNCTION      0.04  1036.49     0  01:36      0.0013        1.04      -0.257
  YS02001751           JUNCTION      0.01   713.20     0  01:37    0.000317        1.04      -0.038
  YS02001754           JUNCTION      0.26   713.90     0  01:37     0.00749        1.06      -0.170
  YS02001757           JUNCTION      0.00  3635.95     0  01:37           0        12.8       0.056
  YS02001759           JUNCTION    924.92  1579.61     0  01:36        1.42        3.28       0.004
  YS02001762           JUNCTION      0.00   825.72     0  01:47           0        1.85      -0.030
  YS02001765           JUNCTION      0.00   824.83     0  01:47           0        1.85       0.018
  YS02001767           JUNCTION      0.54   824.12     0  01:47      0.0154        1.85      -0.017
  YS02001770           JUNCTION   1299.57  1299.57     0  01:39        2.16         2.2      -0.009
  YS02001774           JUNCTION      0.00   735.95     0  01:39           0       0.382       0.291
  YS02001779           JUNCTION      0.01   737.29     0  01:39    0.000144       0.339      -0.394
  YS02001783           JUNCTION      0.00  1179.20     0  01:36           0        4.66       0.005
  YS02001784           JUNCTION      1.06  1178.36     0  01:36      0.0305        4.69       0.013
  YS02001786           JUNCTION      0.06  1180.24     0  01:36     0.00162        4.69       0.012
  YS02001788           JUNCTION      0.07  1182.99     0  01:36     0.00204        4.69       0.006
  YS02001790           JUNCTION      0.15  1182.13     0  01:35     0.00446         4.7       0.018
  YS02001791           JUNCTION      0.00  1289.45     0  01:44           0        4.69      -0.024
  YS02001793           JUNCTION      0.00  1250.70     0  01:39           0         4.7       0.005
  YS02001882           JUNCTION      0.00    77.88     0  01:34           0      0.0142       3.546
  YS02001884           JUNCTION      0.00   145.25     0  01:34           0      0.0511       4.867
  YS02001887           JUNCTION   1019.73  1019.73     0  01:38        1.48        1.51       0.305
  YS02001890           JUNCTION      0.00  1020.16     0  01:38           0        1.47       0.355
  YS02001895           JUNCTION      0.00   605.90     0  01:34           0        1.26       0.136
  YS02001898           JUNCTION      0.00   609.25     0  01:34           0        1.26      -0.024
  YS02001901           JUNCTION      0.00   612.54     0  01:34           0        1.26       0.270
  YS02001904           JUNCTION      0.00   613.83     0  01:34           0        1.27       0.236
  YS02001907           JUNCTION      0.00  2358.97     0  01:39           0        4.53       0.407
  YS02001910           JUNCTION      0.00  1683.57     0  01:40           0        3.23       0.229
  YS02001915           JUNCTION   1136.63  1683.70     0  01:40        2.06        3.28       0.048
  YS02001918           JUNCTION      0.00   749.54     0  01:35           0        1.25       0.064
  YS02001920           JUNCTION      2.87   719.57     0  01:35      0.0827        1.23       0.043
  YS02001923           JUNCTION      0.04  1009.81     0  01:35     0.00109        1.13      -0.099
  YS02001926           JUNCTION      0.05  1272.66     0  01:35      0.0015        1.11      -0.361
  YS02001929           JUNCTION    545.10  1194.28     0  01:35        1.08        1.09      -0.173
  YS02006553           JUNCTION      0.00   792.89     0  02:03           0        2.62       0.458
  YS02006556           JUNCTION      0.00   792.46     0  02:03           0        2.63       0.312
  YS02006558           JUNCTION   1335.19  1335.19     0  01:39        2.17        4.73       0.076
  YS02006561           JUNCTION      0.00  1177.05     0  01:34           0        4.66      -0.003
  YS02163301           JUNCTION      0.00   903.46     0  02:19           0        4.02       0.045
  YS02163601           JUNCTION      0.11  1430.09     0  01:35     0.00317        5.45       0.095
  YS02164001           JUNCTION      0.00  1429.79     0  01:35           0        5.45       0.051
  YSB1154              JUNCTION    693.03   693.03     0  02:25        1.09         1.1       0.124
  YSB1171              JUNCTION      0.00  1462.18     0  02:25           0        2.17       0.262
  YSB1174              JUNCTION    585.41   585.41     0  02:25       0.838       0.838       0.134
  YSB6556              JUNCTION      0.00   692.99     0  02:25           0         1.1       0.081
  CC-1                 OUTFALL       0.00  1024.50     0  00:01           0        3.07       0.000
  CC-2                 OUTFALL       0.00  1024.50     0  00:01           0        7.15       0.000
  JK-1                 OUTFALL       0.00  1500.00     0  01:34           0       0.744       0.000
  JK-2                 OUTFALL       0.00  1500.00     0  01:34           0        2.73       0.000
  WSC                  OUTFALL       0.00  1580.97     0  02:27           0        14.9       0.000
  CC-storage           STORAGE       0.00  3635.27     0  01:37           0          15      -0.192
  JK-storage           STORAGE       0.00  1238.74     0  01:42           0        4.85      -0.338
  XR-storage           STORAGE     200.00   200.00     0  00:00        5.76        6.36       0.001
  
  
  **********************
  Node Surcharge Summary
  **********************
  
  Surcharging occurs when water rises above the top of the highest conduit.
  ---------------------------------------------------------------------
                                               Max. Height   Min. Depth
                                   Hours       Above Crown    Below Rim
  Node                 Type      Surcharged         Meters       Meters
  ---------------------------------------------------------------------
  HS02004478           JUNCTION        0.76          0.885        0.055
  HS02004479           JUNCTION        0.93          0.931        0.119
  HS02004480           JUNCTION        0.97          1.001        0.099
  HS02004770           JUNCTION        0.84          0.720        0.000
  HS02004777           JUNCTION        0.85          0.780        0.000
  HS02004785           JUNCTION        0.79          0.702        0.088
  HS02004788           JUNCTION        0.78          0.720        0.000
  HS02004792           JUNCTION        0.93          0.900        0.000
  HS02004799           JUNCTION        1.11          1.060        0.000
  HS02004802           JUNCTION        0.99          1.210        0.000
  HS02004807           JUNCTION        0.96          1.220        0.000
  HS02004817           JUNCTION        1.59          1.740        0.000
  HS02004824           JUNCTION        0.78          1.310        0.000
  HS02004830           JUNCTION        0.75          1.330        0.000
  HS02004837           JUNCTION        0.69          1.318        0.022
  HS02004842           JUNCTION        0.87          1.520        0.000
  HS02004848           JUNCTION        0.67          1.363        0.007
  HS02004852           JUNCTION        0.70          1.408        0.012
  HS02004856           JUNCTION        0.69          1.300        0.000
  HS02004862           JUNCTION        0.73          1.300        0.000
  HS02004870           JUNCTION        0.75          1.400        0.000
  HS02004876           JUNCTION        0.86          1.560        0.000
  HS02004881           JUNCTION        0.84          1.412        0.038
  HS02004901           JUNCTION        0.85          0.720        0.000
  WS02004401           JUNCTION        1.79          1.313        0.347
  WS02004402           JUNCTION        1.81          1.259        0.481
  WS02004403           JUNCTION        1.82          1.164        0.866
  WS02004404           JUNCTION        1.90          1.141        1.639
  WS02004405           JUNCTION        1.88          1.050        1.750
  WS02004406           JUNCTION        1.87          0.805        1.645
  WS02004407           JUNCTION        0.09          0.075        2.265
  WS02004409           JUNCTION        1.44          0.500        1.860
  WS02004410           JUNCTION        1.34          0.474        2.066
  WS02004411           JUNCTION        1.24          0.279        2.251
  WS02004412           JUNCTION        1.14          0.152        2.158
  WS02004413           JUNCTION        1.64          0.173        2.027
  WS02006109           JUNCTION        2.14          1.820        0.000
  WS02006110           JUNCTION        1.97          1.592        0.258
  WS02006111           JUNCTION        1.59          1.220        0.650
  WS02006112           JUNCTION        2.03          1.680        0.000
  WS02006113           JUNCTION        1.62          1.235        0.695
  WS02006115           JUNCTION        1.75          1.348        0.902
  WS02006116           JUNCTION        1.76          1.312        0.978
  WS02006228           JUNCTION        2.13          2.200        0.000
  WS02006229           JUNCTION        1.28          1.070        0.000
  WS02006230           JUNCTION        1.87          1.570        0.000
  WS02006231           JUNCTION        1.88          1.530        0.000
  WS02006232           JUNCTION        1.98          1.480        0.000
  WS02006234           JUNCTION        1.85          1.240        0.000
  WS02006235           JUNCTION        1.84          1.290        0.000
  WS02006238           JUNCTION        1.87          1.430        0.000
  WS02006239           JUNCTION        1.82          1.290        0.000
  WS02006240           JUNCTION        1.81          1.390        0.000
  WS02006242           JUNCTION        1.85          0.820        0.000
  WS02006243           JUNCTION        1.79          0.770        0.000
  WS02006245           JUNCTION        1.77          0.850        0.000
  WS02006247           JUNCTION        1.78          0.760        0.000
  WS02006248           JUNCTION        1.76          0.380        0.000
  WS02006249           JUNCTION        1.76          0.390        0.000
  WS02006251           JUNCTION        1.61          1.180        0.000
  WS02006252           JUNCTION        2.00          1.100        0.000
  WS02006253           JUNCTION        1.62          2.480        0.000
  WS02006256           JUNCTION        6.72          2.050        0.000
  WS02006280           JUNCTION        1.12          0.769        0.011
  WS02006284           JUNCTION        1.02          0.762        0.038
  WS02006287           JUNCTION        0.87          0.814        0.076
  YS02001580           JUNCTION        0.80          0.450        0.000
  YS02001583           JUNCTION        0.81          0.500        0.000
  YS02001586           JUNCTION        0.91          0.510        0.000
  YS02001590           JUNCTION        0.99          0.750        0.000
  YS02001593           JUNCTION        0.99          0.765        0.075
  YS02001596           JUNCTION        1.11          1.070        0.000
  YS02001600           JUNCTION        1.30          1.190        0.000
  YS02001601           JUNCTION        1.67          1.440        0.000
  YS02001602           JUNCTION        1.60          1.270        0.000
  YS02001605           JUNCTION        1.55          1.180        0.000
  YS02001607           JUNCTION        0.91          0.680        0.000
  YS02001610           JUNCTION        0.94          0.680        0.000
  YS02001613           JUNCTION        0.90          0.700        0.000
  YS02001616           JUNCTION        0.85          0.610        0.000
  YS02001619           JUNCTION        0.84          0.610        0.000
  YS02001622           JUNCTION        0.83          0.620        0.000
  YS02001625           JUNCTION        1.05          0.780        0.000
  YS02001629           JUNCTION        0.74          0.470        0.000
  YS02001633           JUNCTION        1.05          1.044        0.016
  YS02001641           JUNCTION        0.92          0.959        0.141
  YS02001644           JUNCTION        0.87          0.920        0.000
  YS02001647           JUNCTION        0.66          0.793        0.107
  YS02001649           JUNCTION        0.74          1.050        0.000
  YS02001652           JUNCTION        0.57          1.121        0.009
  YS02001655           JUNCTION        0.40          1.200        0.000
  YS02001658           JUNCTION        0.25          1.191        0.109
  YS02001661           JUNCTION        0.08          1.081        0.309
  YS02001664           JUNCTION        0.01          0.751        0.559
  YS02001745           JUNCTION        0.01          1.350        0.000
  YS02001748           JUNCTION        0.13          1.190        0.000
  YS02001751           JUNCTION        0.29          1.200        0.000
  YS02001754           JUNCTION        0.43          1.150        0.000
  YS02001757           JUNCTION        0.76          1.210        0.000
  YS02001759           JUNCTION        0.68          1.205        0.005
  YS02001762           JUNCTION        0.66          1.150        0.000
  YS02001765           JUNCTION        0.62          1.100        0.000
  YS02001767           JUNCTION        0.59          1.030        0.000
  YS02001770           JUNCTION        0.57          0.920        0.000
  YS02001774           JUNCTION        0.64          1.050        0.000
  YS02001779           JUNCTION        0.44          0.680        0.000
  YS02001783           JUNCTION        0.68          0.626        0.974
  YS02001784           JUNCTION        0.65          0.514        0.976
  YS02001786           JUNCTION        0.54          0.220        1.210
  YS02001882           JUNCTION        0.61          0.830        0.000
  YS02001884           JUNCTION        0.62          0.870        0.000
  YS02001887           JUNCTION        0.66          0.950        0.000
  YS02001890           JUNCTION        0.68          0.760        0.000
  YS02001895           JUNCTION        0.60          0.649        0.101
  YS02001898           JUNCTION        0.60          0.740        0.000
  YS02001901           JUNCTION        0.65          0.735        0.135
  YS02001904           JUNCTION        0.64          0.734        0.116
  YS02001907           JUNCTION        0.89          0.950        0.000
  YS02001910           JUNCTION        0.71          1.018        0.082
  YS02001915           JUNCTION        0.61          1.000        0.000
  YS02001918           JUNCTION        0.52          0.810        0.000
  YS02001920           JUNCTION        0.54          1.140        0.000
  YS02001923           JUNCTION        0.20          0.820        0.000
  YS02001926           JUNCTION        0.22          0.900        0.000
  YS02001929           JUNCTION        0.02          0.780        0.000
  YS02006553           JUNCTION        0.91          1.105        0.085
  YS02006556           JUNCTION        0.80          1.183        0.167
  YS02006558           JUNCTION        0.79          1.258        0.142
  YS02006561           JUNCTION        0.49          0.213        0.937
  YS02163301           JUNCTION        1.03          0.936        0.094
  YS02163601           JUNCTION        1.08          1.079        0.001
  YS02164001           JUNCTION        0.94          0.984        0.116
  YSB1154              JUNCTION        1.26          1.400        0.000
  YSB1171              JUNCTION        1.26          1.100        0.000
  YSB1174              JUNCTION        1.16          1.250        0.000
  YSB6556              JUNCTION        1.06          1.100        0.000
  
  
  *********************
  Node Flooding Summary
  *********************
  
  Flooding refers to all water that overflows a node, whether it ponds or not.
  --------------------------------------------------------------------------
                                                             Total   Maximum
                                 Maximum   Time of Max       Flood    Ponded
                        Hours       Rate    Occurrence      Volume     Depth
  Node                 Flooded       LPS   days hr:min    10^6 ltr    Meters
  --------------------------------------------------------------------------
  HS02004770              0.63   2490.83      0  02:25       1.851     0.000
  HS02004777              0.01     13.37      0  02:03       0.000     0.000
  HS02004788              0.01    102.10      0  02:03       0.000     0.000
  HS02004792              0.61   3181.76      0  02:25       2.855     0.000
  HS02004799              0.36    437.55      0  02:25       0.265     0.000
  HS02004802              0.01      0.74      0  02:28       0.000     0.000
  HS02004807              0.26    709.92      0  02:25       0.402     0.000
  HS02004817              0.01     19.14      0  02:28       0.000     0.000
  HS02004824              0.20    448.13      0  02:25       0.189     0.000
  HS02004842              0.18    558.41      0  02:25       0.202     0.000
  HS02004856              0.01     36.62      0  02:28       0.000     0.000
  HS02004862              0.17    602.75      0  02:25       0.183     0.000
  HS02004870              0.01     23.69      0  02:28       0.000     0.000
  HS02004876              0.01     87.36      0  02:28       0.000     0.000
  HS02004901              0.72    906.07      0  02:25       1.275     0.000
  WS02006109              0.66    426.86      0  02:25       0.504     0.000
  WS02006112              0.01     36.88      0  02:28       0.000     0.000
  WS02006228              0.01     27.01      0  02:28       0.000     0.000
  WS02006229              0.01     63.82      0  02:28       0.000     0.000
  WS02006230              1.02    574.04      0  02:28       1.506     0.000
  WS02006231              0.01     40.37      0  01:29       0.000     0.000
  WS02006232              0.19     11.10      0  01:31       0.000     0.000
  WS02006234              1.09    255.07      0  01:29       0.303     0.000
  WS02006235              0.01    155.96      0  01:29       0.000     0.000
  WS02006238              0.01    206.00      0  01:28       0.000     0.000
  WS02006239              0.01    218.23      0  01:30       0.001     0.000
  WS02006240              0.01    124.33      0  01:29       0.000     0.000
  WS02006242              1.26    137.47      0  02:07       0.525     0.000
  WS02006243              0.01     87.06      0  01:30       0.000     0.000
  WS02006245              0.01    118.52      0  01:30       0.000     0.000
  WS02006247              0.01    226.39      0  01:30       0.000     0.000
  WS02006248              1.63    403.30      0  01:30       1.679     0.000
  WS02006249              1.66   1330.70      0  02:25       5.792     0.000
  WS02006251              0.01    267.48      0  01:31       0.000     0.000
  WS02006252              0.85    968.19      0  02:25       1.585     0.000
  WS02006253              0.01    175.42      0  01:31       0.000     0.000
  WS02006256              0.88    449.10      0  03:08       0.978     0.000
  YS02001580              0.01    100.63      0  01:33       0.001     0.000
  YS02001583              0.01    162.97      0  01:33       0.000     0.000
  YS02001586              0.65    529.06      0  01:42       0.607     0.000
  YS02001590              0.01      3.28      0  01:33       0.000     0.000
  YS02001596              0.01      0.14      0  01:49       0.000     0.000
  YS02001600              0.01     11.71      0  01:49       0.000     0.000
  YS02001601              0.82   1481.68      0  01:40       1.914     0.000
  YS02001602              0.65     65.92      0  01:49       0.137     0.000
  YS02001605              0.01      5.63      0  01:49       0.000     0.000
  YS02001607              0.01     38.43      0  01:49       0.000     0.000
  YS02001610              0.60    848.48      0  01:42       1.022     0.000
  YS02001613              0.01     14.23      0  01:33       0.000     0.000
  YS02001616              0.01     78.70      0  01:33       0.000     0.000
  YS02001619              0.01     79.90      0  01:33       0.000     0.000
  YS02001622              0.01    178.55      0  01:33       0.000     0.000
  YS02001625              0.53   1408.96      0  01:43       1.432     0.000
  YS02001629              0.17    418.53      0  01:38       0.121     0.000
  YS02001644              0.22   1258.32      0  01:38       0.580     0.000
  YS02001649              0.01    266.87      0  01:37       0.006     0.000
  YS02001655              0.01     17.94      0  01:37       0.000     0.000
  YS02001745              0.01    153.30      0  01:36       0.000     0.000
  YS02001748              0.01    332.82      0  01:36       0.001     0.000
  YS02001751              0.01    385.52      0  01:36       0.001     0.000
  YS02001754              0.01     43.97      0  01:36       0.000     0.000
  YS02001757              0.01     55.99      0  01:36       0.000     0.000
  YS02001762              0.01     20.61      0  01:36       0.000     0.000
  YS02001765              0.01    168.20      0  01:35       0.000     0.000
  YS02001767              0.01     13.76      0  01:36       0.000     0.000
  YS02001770              0.02    167.81      0  01:35       0.004     0.000
  YS02001774              0.01    124.63      0  01:35       0.000     0.000
  YS02001779              0.20    737.27      0  01:39       0.323     0.000
  YS02001882              0.01     49.76      0  01:34       0.000     0.000
  YS02001884              0.01     24.91      0  01:34       0.000     0.000
  YS02001887              0.01      1.59      0  01:36       0.000     0.000
  YS02001890              0.22    498.90      0  01:38       0.203     0.000
  YS02001898              0.01    271.97      0  01:34       0.001     0.000
  YS02001907              0.46   2358.62      0  01:39       1.936     0.000
  YS02001915              0.01      2.34      0  01:36       0.000     0.000
  YS02001918              0.01    225.69      0  01:36       0.004     0.000
  YS02001920              0.01     37.55      0  01:35       0.000     0.000
  YS02001923              0.01     39.39      0  01:35       0.000     0.000
  YS02001926              0.01    566.83      0  01:35       0.005     0.000
  YS02001929              0.01    961.97      0  01:35       0.003     0.000
  YSB1154                 0.01      1.09      0  02:24       0.000     0.000
  YSB1171                 0.48   1461.85      0  02:25       1.300     0.000
  YSB1174                 0.01      0.88      0  02:24       0.000     0.000
  YSB6556                 0.05     53.01      0  02:25       0.005     0.000
  
  
  **********************
  Storage Volume Summary
  **********************
  
  --------------------------------------------------------------------------------------------------
                         Average     Avg  Evap Exfil       Maximum     Max    Time of Max    Maximum
                          Volume    Pcnt  Pcnt  Pcnt        Volume    Pcnt     Occurrence    Outflow
  Storage Unit           1000 m3    Full  Loss  Loss       1000 m3    Full    days hr:min        LPS
  --------------------------------------------------------------------------------------------------
  CC-storage               1.831      29     0     0         3.612      56       0  02:10    2549.00
  JK-storage               0.067      23     0     0         0.213      73       0  01:39    3450.00
  XR-storage               0.931      65     0     0         1.111      77       0  08:00     380.00
  
  
  ***********************
  Outfall Loading Summary
  ***********************
  
  -----------------------------------------------------------
                         Flow       Avg       Max       Total
                         Freq      Flow      Flow      Volume
  Outfall Node           Pcnt       LPS       LPS    10^6 ltr
  -----------------------------------------------------------
  CC-1                  21.80    870.22   1024.50       3.072
  CC-2                  43.28   1022.76   1024.50       7.148
  JK-1                   3.31   1029.56   1500.00       0.744
  JK-2                   9.55   1491.04   1500.00       2.731
  WSC                   99.95    667.45   1580.97      14.925
  -----------------------------------------------------------
  System                35.58   5081.04   1580.97      28.620
  
  
  ********************
  Link Flow Summary
  ********************
  
  -----------------------------------------------------------------------------
                                 Maximum  Time of Max   Maximum    Max/    Max/
                                  |Flow|   Occurrence   |Veloc|    Full    Full
  Link                 Type          LPS  days hr:min     m/sec    Flow   Depth
  -----------------------------------------------------------------------------
  1                    CONDUIT   1580.97     0  02:27      3.74    0.55    0.53
  HS02004478WS02006287 CONDUIT   2364.87     0  02:28      2.63    0.66    1.00
  HS02004479HS02004480 CONDUIT    378.81     0  02:10      0.54    0.37    1.00
  HS02004480HS02004478 CONDUIT   2005.67     0  02:06      2.87    8.45    1.00
  HS02004770HS02004777 CONDUIT    683.71     0  02:04      0.98    1.25    1.00
  HS02004777HS02004785 CONDUIT    682.78     0  02:04      1.02    0.84    1.00
  HS02004785HS02004788 CONDUIT    681.16     0  02:04      1.35    5.14    1.00
  HS02004788HS02004792 CONDUIT    952.74     0  02:24      1.46    0.63    1.00
  HS02004792HS02004799 CONDUIT   1567.80     0  02:05      2.24    0.96    1.00
  HS02004799HS02004480 CONDUIT   1702.63     0  02:06      2.43    2.15    1.00
  HS02004802HS02004478 CONDUIT   1256.50     0  02:28      1.79    1.11    1.00
  HS02004807HS02004802 CONDUIT   1261.91     0  02:28      1.80    2.41    1.00
  HS02004817HS02004807 CONDUIT   1197.13     0  02:31      1.71    0.71    1.00
  HS02004817HS02004824 CONDUIT   1211.37     0  02:28      1.73    0.55    1.00
  HS02004824HS02004830 CONDUIT    607.83     0  02:24      0.87    0.80    1.00
  HS02004830HS02004837 CONDUIT    607.91     0  02:24      0.87    0.61    1.00
  HS02004837HS02004842 CONDUIT    686.38     0  02:06      0.98    0.41    1.00
  HS02004842HS02004848 CONDUIT    687.38     0  02:06      1.05    0.40    1.00
  HS02004848HS02004852 CONDUIT    864.59     0  02:06      1.48    0.97    1.00
  HS02004852HS02004856 CONDUIT    839.09     0  02:05      1.36    0.96    1.00
  HS02004856HS02004862 CONDUIT    839.76     0  02:05      1.42    0.84    1.00
  HS02004862HS02004870 CONDUIT   1070.44     0  02:32      1.56    1.16    1.00
  HS02004870HS02004876 CONDUIT   1271.38     0  02:31      1.82    0.84    1.00
  HS02004876HS02004881 CONDUIT   1526.11     0  02:28      2.18   16.23    1.00
  HS02004881HS02006253 CONDUIT   1701.64     0  02:25      2.43    0.33    1.00
  HS02004901HS02004770 CONDUIT    265.79     0  02:41      0.38    1.00    1.00
  WS02001211WS02001212 CONDUIT    217.48     0  03:08      0.54    0.17    0.71
  WS02001212WS02001213 CONDUIT    223.34     0  03:08      1.04    0.34    0.58
  WS02001213WS02003059 CONDUIT    231.16     0  03:08      0.47    0.38    0.91
  WS02003059WS02003060 CONDUIT    238.77     0  03:07      0.67    0.16    0.83
  WS02003060WS02003069 CONDUIT   1579.61     0  02:26      2.11    0.62    0.63
  WS02003066WSF200     CONDUIT   1386.84     0  02:25      3.28    0.23    0.40
  WS02003067WS02003066 CONDUIT   1386.92     0  02:25      2.08    0.44    0.57
  WS02003069WS02003072 CONDUIT   1578.59     0  02:26      1.92    0.76    0.68
  WS02003072WS02003073 CONDUIT   1578.46     0  02:27      2.09    3.41    0.63
  WS02004138WS02004139 CONDUIT    190.94     0  00:29      2.16    0.04    0.43
  WS02004139WS02001211 CONDUIT    200.75     0  03:09      0.54    0.25    0.62
  WS02004401WS02004402 CONDUIT   1384.67     0  02:25      1.76    1.66    1.00
  WS02004402WS02004403 CONDUIT   1385.78     0  02:25      1.76    1.99    1.00
  WS02004403WS02004404 CONDUIT   1386.18     0  02:25      1.76    1.00    1.00
  WS02004404WS02004405 CONDUIT   1387.40     0  02:25      1.77   13.59    1.00
  WS02004405WS02004406 CONDUIT   1388.11     0  02:25      1.77    2.74    1.00
  WS02004406WS02004407 CONDUIT   1388.41     0  02:25      1.77    0.62    1.00
  WS02004407WS02004409 CONDUIT   1386.10     0  02:25      1.90    0.49    1.00
  WS02004409WS02004410 CONDUIT   1386.28     0  02:25      1.77    1.79    1.00
  WS02004410WS02004411 CONDUIT   1386.33     0  02:25      1.77    1.89    1.00
  WS02004411WS02004412 CONDUIT   1386.35     0  02:25      1.77    1.97    1.00
  WS02004412WS02004413 CONDUIT   1387.57     0  02:25      1.77    0.93    1.00
  WS02004413WS02003067 CONDUIT   1388.30     0  02:25      2.12    0.59    0.78
  WS02006109WS02006110 CONDUIT   1127.07     0  02:45      2.24    2.17    1.00
  WS02006110WS02006113 CONDUIT   1127.19     0  02:45      2.24    1.03    1.00
  WS02006111WS02006112 CONDUIT   1127.57     0  02:46      2.24    0.54    1.00
  WS02006112WS02006115 CONDUIT   1384.51     0  02:25      1.76    0.82    1.00
  WS02006113WS02006111 CONDUIT   1127.37     0  02:46      2.70    1.35    1.00
  WS02006115WS02006116 CONDUIT   1384.41     0  02:25      1.76    1.78    1.00
  WS02006116WS02004401 CONDUIT   1384.38     0  02:25      1.76    1.91    1.00
  WS02006228WS02006109 CONDUIT   1287.83     0  02:31      2.56    5.63    1.00
  WS02006229WS02006228 CONDUIT   1297.26     0  02:28      2.58    4.30    1.00
  WS02006230WS02006229 CONDUIT   1016.49     0  02:28      2.64   22.62    1.00
  WS02006231WS02006230 CONDUIT    453.32     0  02:05      1.18    6.88    1.00
  WS02006232WS02006231 CONDUIT    454.74     0  02:28      1.18    0.95    1.00
  WS02006234WS02006232 CONDUIT    453.14     0  02:27      1.42    0.92    1.00
  WS02006235WS02006234 CONDUIT    416.80     0  02:54      1.13    4.40    1.00
  WS02006238WS02006235 CONDUIT    416.27     0  02:53      1.45    0.93    1.00
  WS02006239WS02006238 CONDUIT    415.44     0  02:07      1.08    1.33    1.00
  WS02006240WS02006239 CONDUIT    414.94     0  02:07      1.16    1.31    1.00
  WS02006242WS02006240 CONDUIT    415.18     0  02:07      1.08    1.65    1.00
  WS02006243WS02006242 CONDUIT    296.80     0  03:19      1.26    0.63    1.00
  WS02006245WS02006243 CONDUIT    290.31     0  00:06      1.27    0.86    1.00
  WS02006247WS02006245 CONDUIT    317.98     0  01:30      1.27    2.52    1.00
  WS02006248WS02006247 CONDUIT    344.95     0  01:30      1.31    0.75    1.00
  WS02006249WS02006248 CONDUIT    427.68     0  01:30      1.32    2.34    1.00
  WS02006251WS02006249 CONDUIT   1391.84     0  02:25      3.62    4.01    1.00
  WS02006252WS02006251 CONDUIT    611.63     0  01:19     25.31    2.25    1.00
  WS02006253WS02006251 CONDUIT   1759.13     0  02:25      4.57    5.27    1.00
  WS02006256WS02006235 CONDUIT    288.93     0  00:00      4.23    3.06    1.00
  WS02006280WS02006229 CONDUIT   2320.33     0  02:28      4.11    0.50    1.00
  WS02006284WS02006280 CONDUIT   2320.23     0  02:28      3.00    0.97    1.00
  WS02006287WS02006284 CONDUIT   2343.34     0  02:28      2.98    1.09    1.00
  WSF200WS02003060     CONDUIT   1387.21     0  02:25      2.33    0.31    0.52
  YS02001580YS02001583 CONDUIT    171.16     0  01:33      0.90    0.66    1.00
  YS02001583YS02001586 CONDUIT    205.47     0  01:33      0.91    0.31    1.00
  YS02001586YS02001590 CONDUIT    324.35     0  01:49      1.28    0.57    1.00
  YS02001590YS02001593 CONDUIT    324.68     0  01:49      1.15    2.04    1.00
  YS02001593YS02001596 CONDUIT    321.76     0  01:49      1.75    0.51    1.00
  YS02001596YS02001600 CONDUIT    319.55     0  01:49      1.23    0.62    1.00
  YS02001600YS02001601 CONDUIT    318.39     0  02:00      1.13    0.55    1.00
  YS02001601YS02001602 CONDUIT    578.43     0  01:33      2.05    2.09    1.00
  YS02001602YS02001605 CONDUIT    578.53     0  01:33      2.05   12.24    1.00
  YS02001605YS02001607 CONDUIT    578.11     0  01:33      2.04    3.17    1.00
  YS02001607YS02001610 CONDUIT    548.06     0  01:33      0.72    0.52    1.00
  YS02001610YS02001613 CONDUIT    512.61     0  01:42      0.68    0.59    1.00
  YS02001613YS02001616 CONDUIT    512.31     0  01:42      0.67    0.44    1.00
  YS02001616YS02001619 CONDUIT    512.16     0  01:42      0.69    0.89    1.00
  YS02001619YS02001622 CONDUIT    997.21     0  01:41      1.30    1.47    1.00
  YS02001622YS02001625 CONDUIT    997.32     0  01:41      1.27    0.53    1.00
  YS02001625YS02001629 CONDUIT    904.36     0  01:33      1.16    0.43    1.00
  YS02001629YS02163301 CONDUIT    903.46     0  02:19      1.15    1.11    1.00
  YS02001633YS02163601 CONDUIT   1429.98     0  01:35      1.82    1.50    1.00
  YS02001641YS02001644 CONDUIT   1432.48     0  01:35      1.82    4.63    1.00
  YS02001644YS02001647 CONDUIT   1971.35     0  01:35      2.51    1.16    1.00
  YS02001647YS02001649 CONDUIT   1974.21     0  01:35      2.51    1.04    1.00
  YS02001649YS02001757 CONDUIT   2238.50     0  01:35      2.85    1.36    1.00
  YS02001652YS02001649 CONDUIT   1092.90     0  01:37      1.39    0.54    1.00
  YS02001655YS02001652 CONDUIT   1093.64     0  01:37      1.56    0.53    1.00
  YS02001658YS02001655 CONDUIT   1091.35     0  01:37      2.06    0.46    1.00
  YS02001661YS02001658 CONDUIT   1091.41     0  01:37      2.47    0.43    1.00
  YS02001664YS02001661 CONDUIT   1089.47     0  01:37      2.60    0.34    1.00
  YS02001745YS02001748 CONDUIT    713.18     0  01:37      2.48    0.27    1.00
  YS02001748YS02001751 CONDUIT    713.19     0  01:37      1.94    0.36    1.00
  YS02001751YS02001754 CONDUIT    713.64     0  01:37      1.60    0.34    1.00
  YS02001754YS02001757 CONDUIT    715.94     0  01:36      0.91    0.29    1.00
  YS02001757CaochengTiaoxuchi CONDUIT   3635.27     0  01:37      5.38    1.57    1.00
  YS02001759YS02001757 CONDUIT   1582.49     0  01:36      2.01    1.12    1.00
  YS02001762YS02001759 CONDUIT    826.70     0  01:47      1.05    0.95    1.00
  YS02001765YS02001762 CONDUIT    825.72     0  01:47      1.05    0.77    1.00
  YS02001767YS02001765 CONDUIT    824.83     0  01:47      1.05    1.04    1.00
  YS02001770YS02001767 CONDUIT    823.58     0  01:47      1.05    3.26    1.00
  YS02001774YS02001770 CONDUIT    735.95     0  01:39      0.94    0.47    1.00
  YS02001779YS02001774 CONDUIT    737.28     0  01:39      0.94    0.37    1.00
  YS02001783YS02001784 CONDUIT   1177.30     0  01:36      2.34    1.62    1.00
  YS02001784YS02001785 CONDUIT   1180.18     0  01:36      2.35    2.75    1.00
  YS02001786YS02001788 CONDUIT   1182.91     0  01:36      2.51    2.28    0.89
  YS02001788YS02001790 CONDUIT   1181.97     0  01:35      2.73    0.87    0.84
  YS02001790YS02001791 CONDUIT   1289.45     0  01:44      3.42    1.40    0.70
  YS02001791YS02001793 CONDUIT   1250.70     0  01:39      6.77    0.54    0.44
  YS02001793JiankangQianchi CONDUIT   1238.74     0  01:42      2.48    0.10    0.65
  YS02001882YS02001884 CONDUIT     77.88     0  01:34      0.17    0.09    1.00
  YS02001884YS02001887 CONDUIT    145.25     0  01:34      0.18    0.19    1.00
  YS02001887YS02001890 CONDUIT   1020.16     0  01:38      1.30    1.75    1.00
  YS02001890YS02001895 CONDUIT    605.90     0  01:34      0.77    0.28    1.00
  YS02001895YS02001898 CONDUIT    609.25     0  01:34      0.78    1.06    1.00
  YS02001898YS02001901 CONDUIT    612.54     0  01:34      0.78    0.40    1.00
  YS02001901YS02001904 CONDUIT    613.83     0  01:34      0.78    0.95    1.00
  YS02001904YS02001907 CONDUIT    613.31     0  01:34      0.78    0.21    1.00
  YS02001907YS02006553 CONDUIT    792.89     0  02:03      0.88    0.93    1.00
  YS02001910YS02001907 CONDUIT   1683.93     0  01:40      2.14    0.95    1.00
  YS02001915YS02001910 CONDUIT   1683.57     0  01:40      2.14    0.84    1.00
  YS02001918YS02001915 CONDUIT    749.54     0  01:35      0.97    0.41    1.00
  YS02001920YS02001918 CONDUIT    716.70     0  01:35      0.91    0.69    1.00
  YS02001923YS02001920 CONDUIT    741.67     0  01:35      1.00    0.33    1.00
  YS02001926YS02001923 CONDUIT    995.11     0  01:35      1.46    1.42    1.00
  YS02001929YS02001926 CONDUIT    887.97     0  01:35      1.24    0.42    1.00
  YS02006553YS02006556 CONDUIT    792.46     0  02:03      1.01    0.68    1.00
  YS02006556YS02006558 CONDUIT    793.60     0  02:03      1.01    0.63    1.00
  YS02006558YS02006561 CONDUIT   1177.05     0  01:34      4.16    2.60    1.00
  YS02006561YS02001783 CONDUIT   1179.20     0  01:36      2.35    0.61    1.00
  YS02163301YS02001633 CONDUIT    902.58     0  02:19      1.15    0.85    1.00
  YS02163601YS02164001 CONDUIT   1429.79     0  01:35      1.82    1.27    1.00
  YS02164001YS02001641 CONDUIT   1431.68     0  01:35      1.82    1.95    1.00
  YSB1154YSB6556       CONDUIT    692.99     0  02:25      1.80    1.25    1.00
  YSB1171HS02004479    CONDUIT    377.63     0  02:10      0.75    0.25    1.00
  YSB1174YSB1171       CONDUIT    585.35     0  02:25      1.52    0.90    1.00
  YSB6556YSB1171       CONDUIT    639.83     0  02:26      1.66    0.66    1.00
  CC-R1                PUMP      1024.50     0  00:01              1.50
  CC-R2                PUMP      1024.50     0  00:01              1.50
  CC-S1                PUMP       300.00     0  01:13              1.50
  CC-S2                PUMP       300.00     0  00:01              1.50
  JK-R1                PUMP      1500.00     0  01:34              1.50
  JK-R2                PUMP      1500.00     0  01:34              1.50
  JK-S                 PUMP       450.00     0  00:11              1.50
  XR-1                 PUMP        95.00     0  00:00              1.00
  XR-2                 PUMP        95.00     0  00:00              1.00
  XR-3                 PUMP        95.00     0  00:00              1.00
  XR-4                 PUMP        95.00     0  00:00              1.00
  
  
  ***************************
  Flow Classification Summary
  ***************************
  
  -------------------------------------------------------------------------------------
                      Adjusted    ---------- Fraction of Time in Flow Class ---------- 
                       /Actual         Up    Down  Sub   Sup   Up    Down  Norm  Inlet 
  Conduit               Length    Dry  Dry   Dry   Crit  Crit  Crit  Crit  Ltd   Ctrl  
  -------------------------------------------------------------------------------------
  1                       1.00   0.00  0.00  0.00  0.00  1.00  0.00  0.00  0.33  0.00
  HS02004478WS02006287    1.00   0.12  0.00  0.00  0.55  0.33  0.00  0.00  0.57  0.00
  HS02004479HS02004480    1.00   0.07  0.00  0.00  0.93  0.00  0.00  0.00  0.10  0.00
  HS02004480HS02004478    1.00   0.11  0.00  0.00  0.50  0.00  0.00  0.39  0.00  0.00
  HS02004770HS02004777    1.00   0.00  0.11  0.00  0.89  0.00  0.00  0.00  0.02  0.00
  HS02004777HS02004785    1.00   0.00  0.00  0.00  1.00  0.00  0.00  0.00  0.11  0.00
  HS02004785HS02004788    1.00   0.00  0.00  0.00  1.00  0.00  0.00  0.00  0.00  0.00
  HS02004788HS02004792    1.00   0.00  0.00  0.00  0.96  0.04  0.00  0.00  0.86  0.00
  HS02004792HS02004799    1.00   0.00  0.00  0.00  0.95  0.05  0.00  0.00  0.81  0.00
  HS02004799HS02004480    1.00   0.01  0.07  0.00  0.88  0.00  0.05  0.00  0.00  0.00
  HS02004802HS02004478    1.00   0.11  0.00  0.00  0.88  0.00  0.00  0.00  0.02  0.00
  HS02004807HS02004802    1.00   0.11  0.00  0.00  0.88  0.00  0.00  0.01  0.00  0.00
  HS02004817HS02004807    1.00   0.00  0.11  0.00  0.89  0.00  0.00  0.00  0.01  0.00
  HS02004817HS02004824    1.00   0.00  0.00  0.00  1.00  0.00  0.00  0.00  0.77  0.00
  HS02004824HS02004830    1.00   0.00  0.00  0.00  1.00  0.00  0.00  0.00  0.01  0.00
  HS02004830HS02004837    1.00   0.00  0.00  0.00  0.99  0.01  0.00  0.00  0.83  0.00
  HS02004837HS02004842    1.00   0.00  0.00  0.00  0.98  0.02  0.00  0.00  0.11  0.00
  HS02004842HS02004848    1.00   0.00  0.11  0.00  0.89  0.00  0.00  0.00  0.52  0.00
  HS02004848HS02004852    1.00   0.11  0.00  0.00  0.89  0.00  0.00  0.00  0.68  0.00
  HS02004852HS02004856    1.00   0.11  0.00  0.00  0.89  0.00  0.00  0.00  0.63  0.00
  HS02004856HS02004862    1.00   0.00  0.12  0.00  0.88  0.00  0.00  0.00  0.70  0.00
  HS02004862HS02004870    1.00   0.00  0.00  0.00  1.00  0.00  0.00  0.00  0.02  0.00
  HS02004870HS02004876    1.00   0.02  0.00  0.00  0.97  0.01  0.00  0.00  0.81  0.00
  HS02004876HS02004881    1.00   0.06  0.00  0.00  0.67  0.27  0.00  0.00  0.00  0.00
  HS02004881HS02006253    1.00   0.03  0.05  0.00  0.38  0.05  0.00  0.49  0.10  0.00
  HS02004901HS02004770    1.00   0.11  0.00  0.00  0.89  0.00  0.00  0.00  0.00  0.00
  WS02001211WS02001212    1.00   0.00  0.07  0.00  0.93  0.00  0.00  0.00  0.00  0.00
  WS02001212WS02001213    1.00   0.07  0.00  0.00  0.48  0.00  0.46  0.00  0.00  0.00
  WS02001213WS02003059    1.00   0.00  0.03  0.00  0.97  0.00  0.00  0.00  0.00  0.00
  WS02003059WS02003060    1.00   0.00  0.00  0.00  0.99  0.01  0.00  0.00  0.03  0.00
  WS02003060WS02003069    1.00   0.00  0.00  0.00  0.96  0.04  0.00  0.00  0.48  0.00
  WS02003066WSF200        1.00   0.11  0.00  0.00  0.00  0.89  0.00  0.00  0.61  0.00
  WS02003067WS02003066    1.00   0.10  0.01  0.00  0.89  0.00  0.00  0.00  0.00  0.00
  WS02003069WS02003072    1.00   0.00  0.00  0.00  0.98  0.02  0.00  0.00  0.66  0.00
  WS02003072WS02003073    1.00   0.00  0.00  0.00  0.00  0.00  0.00  1.00  0.00  0.00
  WS02004138WS02004139    1.00   0.00  0.00  0.00  0.93  0.01  0.00  0.06  0.98  0.00
  WS02004139WS02001211    1.00   0.00  0.01  0.00  0.98  0.00  0.01  0.00  0.00  0.00
  WS02004401WS02004402    1.00   0.07  0.00  0.00  0.93  0.00  0.00  0.00  0.00  0.00
  WS02004402WS02004403    1.00   0.07  0.00  0.00  0.93  0.00  0.00  0.00  0.00  0.00
  WS02004403WS02004404    1.00   0.00  0.07  0.00  0.93  0.00  0.00  0.00  0.00  0.00
  WS02004404WS02004405    1.00   0.00  0.00  0.00  1.00  0.00  0.00  0.00  0.00  0.00
  WS02004405WS02004406    1.00   0.00  0.00  0.00  1.00  0.00  0.00  0.00  0.00  0.00
  WS02004406WS02004407    1.00   0.00  0.08  0.00  0.92  0.00  0.00  0.00  0.00  0.00
  WS02004407WS02004409    1.00   0.08  0.00  0.00  0.91  0.00  0.00  0.00  0.76  0.00
  WS02004409WS02004410    1.00   0.08  0.00  0.00  0.92  0.00  0.00  0.00  0.03  0.00
  WS02004410WS02004411    1.00   0.08  0.00  0.00  0.92  0.00  0.00  0.00  0.01  0.00
  WS02004411WS02004412    1.00   0.08  0.00  0.00  0.92  0.00  0.00  0.00  0.00  0.00
  WS02004412WS02004413    1.00   0.08  0.00  0.00  0.91  0.00  0.00  0.00  0.01  0.00
  WS02004413WS02003067    1.00   0.09  0.02  0.00  0.00  0.00  0.90  0.00  0.00  0.00
  WS02006109WS02006110    1.00   0.00  0.04  0.00  0.94  0.00  0.02  0.00  0.00  0.00
  WS02006110WS02006113    1.00   0.04  0.02  0.00  0.94  0.00  0.00  0.00  0.00  0.00
  WS02006111WS02006112    1.00   0.06  0.00  0.00  0.93  0.00  0.00  0.00  0.74  0.00
  WS02006112WS02006115    1.00   0.06  0.00  0.00  0.93  0.00  0.00  0.00  0.00  0.00
  WS02006113WS02006111    1.00   0.06  0.00  0.00  0.33  0.61  0.00  0.00  0.06  0.00
  WS02006115WS02006116    1.00   0.07  0.00  0.00  0.93  0.00  0.00  0.01  0.00  0.00
  WS02006116WS02004401    1.00   0.07  0.00  0.00  0.93  0.00  0.00  0.00  0.00  0.00
  WS02006228WS02006109    1.00   0.00  0.00  0.00  1.00  0.00  0.00  0.00  0.00  0.00
  WS02006229WS02006228    1.00   0.00  0.00  0.00  0.96  0.00  0.00  0.04  0.00  0.00
  WS02006230WS02006229    1.00   0.00  0.00  0.00  0.94  0.00  0.00  0.06  0.03  0.00
  WS02006231WS02006230    1.00   0.00  0.00  0.00  0.52  0.00  0.48  0.00  0.00  0.00
  WS02006232WS02006231    1.00   0.00  0.00  0.00  0.98  0.00  0.02  0.00  0.00  0.00
  WS02006234WS02006232    1.00   0.00  0.00  0.00  0.99  0.01  0.00  0.00  0.06  0.00
  WS02006235WS02006234    1.00   0.00  0.00  0.00  0.85  0.00  0.15  0.00  0.00  0.00
  WS02006238WS02006235    1.00   0.00  0.00  0.00  1.00  0.00  0.00  0.00  0.00  0.00
  WS02006239WS02006238    1.00   0.00  0.00  0.00  1.00  0.00  0.00  0.00  0.17  0.00
  WS02006240WS02006239    1.00   0.00  0.00  0.00  0.74  0.00  0.00  0.26  0.01  0.00
  WS02006242WS02006240    1.00   0.01  0.00  0.00  0.98  0.00  0.02  0.00  0.00  0.00
  WS02006243WS02006242    1.00   0.00  0.00  0.00  0.97  0.00  0.00  0.02  0.66  0.00
  WS02006245WS02006243    1.00   0.00  0.00  0.00  0.90  0.00  0.00  0.10  0.00  0.00
  WS02006247WS02006245    1.00   0.00  0.00  0.00  0.97  0.00  0.00  0.03  0.00  0.00
  WS02006248WS02006247    1.00   0.00  0.00  0.00  0.99  0.00  0.00  0.01  0.54  0.00
  WS02006249WS02006248    1.00   0.00  0.00  0.00  0.63  0.00  0.37  0.00  0.00  0.00
  WS02006251WS02006249    1.00   0.00  0.00  0.00  0.99  0.01  0.00  0.00  0.59  0.00
  WS02006252WS02006251    1.00   0.26  0.23  0.00  0.31  0.00  0.20  0.00  0.00  0.00
  WS02006253WS02006251    1.00   0.00  0.00  0.00  0.98  0.00  0.02  0.00  0.01  0.00
  WS02006256WS02006235    1.00   0.00  0.00  0.00  0.99  0.01  0.00  0.00  0.00  0.00
  WS02006280WS02006229    1.00   0.12  0.00  0.00  0.27  0.06  0.00  0.56  0.00  0.00
  WS02006284WS02006280    1.00   0.12  0.00  0.00  0.20  0.02  0.00  0.66  0.00  0.00
  WS02006287WS02006284    1.00   0.10  0.02  0.00  0.44  0.43  0.00  0.00  0.62  0.00
  WSF200WS02003060        1.00   0.00  0.11  0.00  0.45  0.44  0.00  0.00  0.58  0.00
  YS02001580YS02001583    1.00   0.20  0.48  0.00  0.32  0.00  0.00  0.00  0.68  0.00
  YS02001583YS02001586    1.00   0.27  0.29  0.00  0.44  0.00  0.00  0.00  0.69  0.00
  YS02001586YS02001590    1.00   0.11  0.00  0.00  0.64  0.02  0.00  0.22  0.34  0.00
  YS02001590YS02001593    1.00   0.11  0.00  0.00  0.21  0.00  0.67  0.00  0.00  0.00
  YS02001593YS02001596    1.00   0.11  0.00  0.00  0.25  0.01  0.00  0.62  0.03  0.00
  YS02001596YS02001600    1.00   0.12  0.00  0.00  0.34  0.02  0.00  0.52  0.04  0.00
  YS02001600YS02001601    1.00   0.11  0.00  0.00  0.88  0.00  0.00  0.00  0.59  0.00
  YS02001601YS02001602    1.00   0.11  0.00  0.00  0.89  0.00  0.00  0.00  0.00  0.00
  YS02001602YS02001605    1.00   0.11  0.00  0.00  0.89  0.00  0.00  0.00  0.00  0.00
  YS02001605YS02001607    1.00   0.12  0.00  0.00  0.88  0.00  0.00  0.00  0.00  0.00
  YS02001607YS02001610    1.00   0.11  0.00  0.00  0.88  0.00  0.00  0.00  0.01  0.00
  YS02001610YS02001613    1.00   0.11  0.00  0.00  0.89  0.00  0.00  0.00  0.00  0.00
  YS02001613YS02001616    1.00   0.11  0.00  0.00  0.89  0.00  0.00  0.00  0.00  0.00
  YS02001616YS02001619    1.00   0.11  0.00  0.00  0.89  0.00  0.00  0.00  0.00  0.00
  YS02001619YS02001622    1.00   0.11  0.00  0.00  0.89  0.00  0.00  0.00  0.29  0.00
  YS02001622YS02001625    1.00   0.11  0.00  0.00  0.89  0.00  0.00  0.00  0.03  0.00
  YS02001625YS02001629    1.00   0.11  0.02  0.00  0.28  0.00  0.59  0.00  0.00  0.00
  YS02001629YS02163301    1.00   0.12  0.00  0.00  0.88  0.00  0.00  0.00  0.00  0.00
  YS02001633YS02163601    1.00   0.00  0.03  0.00  0.97  0.00  0.00  0.00  0.14  0.00
  YS02001641YS02001644    1.00   0.00  0.02  0.00  0.98  0.00  0.00  0.00  0.00  0.00
  YS02001644YS02001647    1.00   0.00  0.13  0.00  0.87  0.00  0.00  0.00  0.00  0.00
  YS02001647YS02001649    1.00   0.00  0.13  0.00  0.47  0.40  0.00  0.00  0.56  0.00
  YS02001649YS02001757    1.00   0.00  0.00  0.00  0.59  0.41  0.00  0.00  0.52  0.00
  YS02001652YS02001649    1.00   0.00  0.00  0.00  0.98  0.02  0.00  0.00  0.72  0.00
  YS02001655YS02001652    1.00   0.00  0.00  0.00  0.30  0.03  0.00  0.67  0.09  0.00
  YS02001658YS02001655    1.00   0.00  0.12  0.00  0.52  0.37  0.00  0.00  0.71  0.00
  YS02001661YS02001658    1.00   0.12  0.00  0.00  0.35  0.53  0.00  0.00  0.74  0.00
  YS02001664YS02001661    1.00   0.11  0.00  0.00  0.66  0.23  0.00  0.00  0.85  0.00
  YS02001745YS02001748    1.00   0.00  0.00  0.00  0.12  0.01  0.00  0.87  0.04  0.00
  YS02001748YS02001751    1.00   0.00  0.00  0.00  0.67  0.33  0.00  0.00  0.82  0.00
  YS02001751YS02001754    1.00   0.00  0.00  0.00  0.21  0.01  0.00  0.78  0.03  0.00
  YS02001754YS02001757    1.00   0.00  0.00  0.00  1.00  0.00  0.00  0.00  0.83  0.00
  YS02001757CaochengTiaoxuchi    1.00   0.00  0.00  0.00  0.91  0.09  0.00  0.00  0.84  0.00
  YS02001759YS02001757    1.00   0.00  0.00  0.00  1.00  0.00  0.00  0.00  0.61  0.00
  YS02001762YS02001759    1.00   0.00  0.00  0.00  1.00  0.00  0.00  0.00  0.03  0.00
  YS02001765YS02001762    1.00   0.00  0.00  0.00  1.00  0.00  0.00  0.00  0.72  0.00
  YS02001767YS02001765    1.00   0.00  0.00  0.00  1.00  0.00  0.00  0.00  0.00  0.00
  YS02001770YS02001767    1.00   0.00  0.00  0.00  1.00  0.00  0.00  0.00  0.00  0.00
  YS02001774YS02001770    1.00   0.00  0.11  0.00  0.80  0.00  0.09  0.00  0.02  0.00
  YS02001779YS02001774    1.00   0.00  0.00  0.00  1.00  0.00  0.00  0.00  0.77  0.00
  YS02001783YS02001784    1.00   0.00  0.13  0.00  0.87  0.00  0.00  0.00  0.55  0.00
  YS02001784YS02001785    1.00   0.00  0.00  0.00  1.00  0.00  0.00  0.00  0.15  0.00
  YS02001786YS02001788    1.00   0.00  0.00  0.00  0.62  0.38  0.00  0.00  0.00  0.00
  YS02001788YS02001790    1.00   0.00  0.00  0.00  0.19  0.81  0.00  0.00  0.79  0.00
  YS02001790YS02001791    1.00   0.00  0.00  0.00  0.06  0.94  0.00  0.00  0.17  0.00
  YS02001791YS02001793    1.00   0.00  0.00  0.00  0.00  1.00  0.00  0.00  0.01  0.00
  YS02001793JiankangQianchi    1.00   0.00  0.00  0.00  0.94  0.06  0.00  0.00  0.96  0.00
  YS02001882YS02001884    1.00   0.12  0.00  0.00  0.88  0.00  0.00  0.00  0.00  0.00
  YS02001884YS02001887    1.00   0.09  0.02  0.00  0.89  0.00  0.00  0.00  0.00  0.00
  YS02001887YS02001890    1.00   0.00  0.00  0.00  0.93  0.00  0.07  0.00  0.00  0.00
  YS02001890YS02001895    1.00   0.01  0.12  0.00  0.88  0.00  0.00  0.00  0.00  0.00
  YS02001895YS02001898    1.00   0.12  0.00  0.00  0.86  0.00  0.01  0.00  0.00  0.00
  YS02001898YS02001901    1.00   0.12  0.00  0.00  0.88  0.00  0.00  0.00  0.01  0.00
  YS02001901YS02001904    1.00   0.12  0.00  0.00  0.88  0.00  0.00  0.00  0.00  0.00
  YS02001904YS02001907    1.00   0.00  0.12  0.00  0.88  0.00  0.00  0.00  0.00  0.00
  YS02001907YS02006553    1.00   0.00  0.06  0.00  0.94  0.00  0.00  0.00  0.00  0.00
  YS02001910YS02001907    1.00   0.00  0.00  0.00  0.93  0.00  0.00  0.07  0.12  0.00
  YS02001915YS02001910    1.00   0.00  0.00  0.00  0.98  0.02  0.00  0.00  0.13  0.00
  YS02001918YS02001915    1.00   0.00  0.02  0.00  0.95  0.03  0.00  0.00  0.73  0.00
  YS02001920YS02001918    1.00   0.00  0.02  0.00  0.98  0.00  0.00  0.00  0.00  0.00
  YS02001923YS02001920    1.00   0.00  0.00  0.00  1.00  0.00  0.00  0.00  0.91  0.00
  YS02001926YS02001923    1.00   0.00  0.09  0.00  0.11  0.00  0.80  0.00  0.00  0.00
  YS02001929YS02001926    1.00   0.00  0.11  0.00  0.89  0.00  0.00  0.00  0.80  0.00
  YS02006553YS02006556    1.00   0.05  0.00  0.00  0.95  0.00  0.00  0.00  0.03  0.00
  YS02006556YS02006558    1.00   0.00  0.01  0.00  0.99  0.00  0.00  0.00  0.00  0.00
  YS02006558YS02006561    1.00   0.13  0.00  0.00  0.11  0.76  0.00  0.00  0.18  0.00
  YS02006561YS02001783    1.00   0.13  0.00  0.00  0.15  0.71  0.00  0.00  0.67  0.00
  YS02163301YS02001633    1.00   0.00  0.12  0.00  0.88  0.00  0.00  0.00  0.00  0.00
  YS02163601YS02164001    1.00   0.00  0.09  0.00  0.91  0.00  0.00  0.00  0.00  0.00
  YS02164001YS02001641    1.00   0.03  0.07  0.00  0.91  0.00  0.00  0.00  0.05  0.00
  YSB1154YSB6556          1.00   0.11  0.00  0.00  0.89  0.00  0.00  0.00  0.01  0.00
  YSB1171HS02004479       1.00   0.08  0.00  0.00  0.92  0.00  0.00  0.01  0.09  0.00
  YSB1174YSB1171          1.00   0.08  0.02  0.00  0.90  0.00  0.00  0.00  0.00  0.00
  YSB6556YSB1171          1.00   0.08  0.03  0.00  0.89  0.00  0.00  0.00  0.00  0.00
  
  
  *************************
  Conduit Surcharge Summary
  *************************
  
  ----------------------------------------------------------------------------
                                                           Hours        Hours 
                         --------- Hours Full --------   Above Full   Capacity
  Conduit                Both Ends  Upstream  Dnstream   Normal Flow   Limited
  ----------------------------------------------------------------------------
  HS02004478WS02006287        0.76      0.76      0.98      0.01         0.01
  HS02004479HS02004480        0.98      0.98      1.01      0.01         0.01
  HS02004480HS02004478        0.88      0.97      0.88      1.98         0.88
  HS02004770HS02004777        0.84      0.84      0.85      0.14         0.09
  HS02004777HS02004785        0.79      0.79      0.85      0.01         0.01
  HS02004785HS02004788        0.78      0.79      0.78      1.63         0.65
  HS02004788HS02004792        0.78      0.78      0.93      0.01         0.01
  HS02004792HS02004799        0.93      0.93      1.11      0.01         0.01
  HS02004799HS02004480        0.97      0.97      1.11      1.22         0.01
  HS02004802HS02004478        0.91      0.91      1.00      0.27         0.01
  HS02004807HS02004802        0.96      0.96      0.99      0.46         0.47
  HS02004817HS02004807        0.96      0.96      1.59      0.01         0.01
  HS02004817HS02004824        0.78      0.78      1.59      0.01         0.01
  HS02004824HS02004830        0.75      0.75      0.78      0.01         0.01
  HS02004830HS02004837        0.69      0.69      0.75      0.01         0.01
  HS02004837HS02004842        0.69      0.69      0.87      0.01         0.01
  HS02004842HS02004848        0.67      0.67      0.87      0.01         0.01
  HS02004848HS02004852        0.67      0.67      0.70      0.01         0.01
  HS02004852HS02004856        0.70      0.70      0.72      0.01         0.01
  HS02004856HS02004862        0.69      0.69      0.73      0.01         0.01
  HS02004862HS02004870        0.73      0.73      0.75      0.27         0.27
  HS02004870HS02004876        0.75      0.75      0.86      0.01         0.01
  HS02004876HS02004881        0.84      0.86      0.84      1.80         0.84
  HS02004881HS02006253        0.84      0.84      1.62      0.01         0.01
  HS02004901HS02004770        0.84      0.84      0.85      0.20         0.01
  WS02003072WS02003073        0.01      0.01      0.01      2.39         0.01
  WS02004401WS02004402        1.79      1.79      1.81      1.70         1.67
  WS02004402WS02004403        1.81      1.81      1.82      1.80         1.78
  WS02004403WS02004404        1.82      1.82      1.90      0.01         0.06
  WS02004404WS02004405        1.88      1.90      1.88      3.02         1.88
  WS02004405WS02004406        1.87      1.88      1.87      2.01         1.87
  WS02004406WS02004407        0.09      0.09      1.87      0.01         0.01
  WS02004407WS02004409        0.09      0.09      1.44      0.01         0.01
  WS02004409WS02004410        1.34      1.44      1.34      1.74         1.34
  WS02004410WS02004411        1.24      1.34      1.24      1.77         1.24
  WS02004411WS02004412        1.14      1.24      1.14      1.79         1.14
  WS02004412WS02004413        1.14      1.14      1.64      0.01         0.01
  WS02004413WS02003067        0.01      0.01      1.64      0.01         0.01
  WS02006109WS02006110        1.97      1.97      2.17      1.98         0.01
  WS02006110WS02006113        1.62      1.62      2.15      0.39         0.01
  WS02006111WS02006112        1.59      1.59      2.31      0.01         0.01
  WS02006112WS02006115        1.75      1.75      2.03      0.01         0.01
  WS02006113WS02006111        1.61      1.62      1.61      1.71         1.60
  WS02006115WS02006116        1.75      1.75      1.76      1.74         1.73
  WS02006116WS02004401        1.79      1.79      1.79      1.78         1.76
  WS02006228WS02006109        2.14      2.17      2.14      2.42         2.14
  WS02006229WS02006228        2.13      2.15      2.13      2.28         2.13
  WS02006230WS02006229        2.20      2.21      2.20      3.26         0.64
  WS02006231WS02006230        1.87      1.87      1.90      2.59         1.50
  WS02006232WS02006231        1.88      1.88      1.98      0.01         0.16
  WS02006234WS02006232        1.88      1.88      1.98      0.01         0.03
  WS02006235WS02006234        1.82      1.85      1.83      2.26         1.43
  WS02006238WS02006235        1.85      1.86      1.92      0.01         0.42
  WS02006239WS02006238        1.84      1.88      1.87      1.16         0.09
  WS02006240WS02006239        1.80      1.83      1.82      1.16         0.08
  WS02006242WS02006240        1.80      1.80      1.88      1.30         1.26
  WS02006243WS02006242        1.81      1.81      1.85      0.01         0.01
  WS02006245WS02006243        1.78      1.79      1.79      0.01         0.07
  WS02006247WS02006245        1.77      1.79      1.77      1.89         0.20
  WS02006248WS02006247        1.76      1.76      1.78      0.01         0.02
  WS02006249WS02006248        1.75      1.76      1.76      0.32         0.03
  WS02006251WS02006249        1.75      1.76      1.76      1.62         1.63
  WS02006252WS02006251        1.67      1.95      1.96      1.52         0.19
  WS02006253WS02006251        1.74      1.76      1.76      1.14         0.06
  WS02006256WS02006235        2.34      2.54      6.62      0.43         0.02
  WS02006280WS02006229        1.15      1.15      1.28      0.01         0.01
  WS02006284WS02006280        1.02      1.02      1.12      0.01         0.01
  WS02006287WS02006284        0.87      0.87      1.03      0.52         0.53
  YS02001580YS02001583        0.79      0.80      0.82      0.01         0.01
  YS02001583YS02001586        0.81      0.81      0.91      0.01         0.01
  YS02001586YS02001590        0.92      0.92      0.99      0.01         0.01
  YS02001590YS02001593        0.99      0.99      1.01      1.11         0.01
  YS02001593YS02001596        1.00      1.00      1.11      0.01         0.01
  YS02001596YS02001600        1.16      1.16      1.30      0.01         0.01
  YS02001600YS02001601        1.39      1.39      1.67      0.01         0.01
  YS02001601YS02001602        1.60      1.60      1.70      1.34         0.01
  YS02001602YS02001605        1.55      1.55      1.60      2.35         0.01
  YS02001605YS02001607        1.50      1.55      1.50      1.65         1.50
  YS02001607YS02001610        0.91      0.91      0.94      0.01         0.01
  YS02001610YS02001613        0.90      0.90      0.94      0.01         0.01
  YS02001613YS02001616        0.85      0.85      0.90      0.01         0.01
  YS02001616YS02001619        0.84      0.84      0.85      0.01         0.07
  YS02001619YS02001622        0.83      0.84      0.83      1.05         0.81
  YS02001622YS02001625        0.83      0.83      1.05      0.01         0.01
  YS02001625YS02001629        0.74      0.74      1.05      0.01         0.01
  YS02001629YS02163301        1.02      1.02      1.03      0.38         0.36
  YS02001633YS02163601        1.05      1.05      1.08      0.55         0.54
  YS02001641YS02001644        0.87      0.92      0.87      1.72         0.87
  YS02001644YS02001647        0.66      0.66      0.87      0.03         0.01
  YS02001647YS02001649        0.66      0.66      0.74      0.01         0.01
  YS02001649YS02001757        0.74      0.74      0.76      0.45         0.41
  YS02001652YS02001649        0.60      0.60      0.74      0.01         0.01
  YS02001655YS02001652        0.40      0.40      0.57      0.01         0.01
  YS02001658YS02001655        0.24      0.24      0.40      0.01         0.01
  YS02001661YS02001658        0.08      0.08      0.24      0.01         0.01
  YS02001664YS02001661        0.01      0.01      0.12      0.01         0.01
  YS02001745YS02001748        0.01      0.01      0.13      0.01         0.01
  YS02001748YS02001751        0.19      0.20      0.29      0.01         0.01
  YS02001751YS02001754        0.29      0.29      0.43      0.01         0.01
  YS02001754YS02001757        0.48      0.48      0.76      0.01         0.01
  YS02001757CaochengTiaoxuchi        0.54      0.76      1.06      0.56         0.31
  YS02001759YS02001757        0.68      0.68      0.76      0.11         0.10
  YS02001762YS02001759        0.66      0.66      0.68      0.01         0.03
  YS02001765YS02001762        0.62      0.62      0.66      0.01         0.01
  YS02001767YS02001765        0.59      0.59      0.62      0.02         0.05
  YS02001770YS02001767        0.59      0.60      0.59      0.69         0.50
  YS02001774YS02001770        0.57      0.57      0.64      0.01         0.01
  YS02001779YS02001774        0.44      0.44      0.64      0.01         0.01
  YS02001783YS02001784        0.65      0.68      0.65      0.82         0.65
  YS02001784YS02001785        0.54      0.65      0.54      1.10         0.54
  YS02001786YS02001788        0.01      0.54      0.01      0.95         0.01
  YS02001790YS02001791        0.01      0.01      0.01      0.64         0.01
  YS02001793JiankangQianchi        0.01      0.01      7.13      0.01         0.01
  YS02001882YS02001884        0.61      0.61      0.62      0.01         0.01
  YS02001884YS02001887        0.65      0.65      0.66      0.01         0.01
  YS02001887YS02001890        0.68      0.68      0.69      0.19         0.01
  YS02001890YS02001895        0.60      0.60      0.71      0.01         0.01
  YS02001895YS02001898        0.60      0.60      0.60      0.01         0.01
  YS02001898YS02001901        0.61      0.61      0.65      0.01         0.01
  YS02001901YS02001904        0.64      0.64      0.65      0.01         0.01
  YS02001904YS02001907        0.64      0.64      0.92      0.01         0.01
  YS02001907YS02006553        1.12      1.12      1.21      0.01         0.01
  YS02001910YS02001907        0.71      0.71      0.89      0.01         0.01
  YS02001915YS02001910        0.61      0.61      0.71      0.01         0.01
  YS02001918YS02001915        0.52      0.52      0.61      0.01         0.01
  YS02001920YS02001918        0.52      0.52      0.54      0.01         0.01
  YS02001923YS02001920        0.48      0.48      0.54      0.01         0.01
  YS02001926YS02001923        0.19      0.20      0.22      0.01         0.01
  YS02001929YS02001926        0.02      0.02      0.22      0.01         0.01
  YS02006553YS02006556        0.80      0.80      0.91      0.01         0.01
  YS02006556YS02006558        0.85      0.85      0.94      0.01         0.01
  YS02006558YS02006561        0.56      0.79      0.56      1.05         0.56
  YS02006561YS02001783        0.49      0.49      0.68      0.01         0.01
  YS02163301YS02001633        1.03      1.03      1.07      0.01         0.01
  YS02163601YS02164001        0.94      0.94      1.08      0.19         0.01
  YS02164001YS02001641        0.92      0.94      0.92      0.88         0.68
  YSB1154YSB6556              1.06      1.06      1.26      0.09         0.01
  YSB1171HS02004479           0.93      0.93      1.26      0.01         0.01
  YSB1174YSB1171              1.16      1.16      1.50      0.01         0.01
  YSB6556YSB1171              1.06      1.06      1.66      0.01         0.01
  
  
  ***************
  Pumping Summary
  ***************
  
  ---------------------------------------------------------------------------------------------------------
                                                  Min       Avg       Max     Total     Power    % Time Off
                        Percent   Number of      Flow      Flow      Flow    Volume     Usage    Pump Curve
  Pump                 Utilized   Start-Ups       LPS       LPS       LPS  10^6 ltr     Kw-hr    Low   High
  ---------------------------------------------------------------------------------------------------------
  CC-R1                   12.71          13      0.00    870.22   1024.50     3.076     53.95    0.0   45.2
  CC-R2                   24.49         106      0.00   1022.76   1024.50     7.204    126.50    0.0   45.6
  CC-S1                   20.50         104      0.00    279.29    300.00     1.597     12.92    0.0    0.0
  CC-S2                   20.99          35      0.00    299.33    300.00     1.807     14.62    0.0    0.0
  JK-R1                    2.50          26      0.00   1029.56   1500.00     0.743      9.11    0.0    0.0
  JK-R2                    6.37          51      0.00   1491.04   1500.00     2.728     20.10    0.0    0.0
  JK-S                    10.79          98      0.00    437.52    450.00     1.353     23.55    0.0    0.0
  XR-1                    97.91           2      0.00     95.00     95.00     2.679      9.60    0.0    0.0
  XR-2                    93.94           2      0.00     95.00     95.00     2.570      8.76    0.0    0.0
  XR-3                     0.00           1      0.00     95.00     95.00     0.000      0.00    0.0    0.0
  XR-4                     0.00           1      0.00     95.00     95.00     0.000      0.00    0.0    0.0
  

  Analysis begun on:  Thu Jul 20 18:52:59 2023
  Analysis ended on:  Thu Jul 20 18:53:34 2023
  Total elapsed time: 00:00:35