
  OWA STORM WATER MANAGEMENT MODEL - VERSION v5.1.14 (OWA 2022-07-31)
  --------------------------------------------------------------

  WARNING 04: minimum elevation drop used for Conduit WS02004404WS02004405
  WARNING 03: negative offset ignored for Link YS02001904YS02001907
  
  *********************************************************
  NOTE: The summary statistics displayed in this report are
  based on results found at every computational time step,  
  not just on results from each reporting time step.
  *********************************************************
  
  ****************
  Analysis Options
  ****************
  Flow Units ............... LPS
  Process Models:
    Rainfall/Runoff ........ YES
    RDII ................... NO
    Snowmelt ............... NO
    Groundwater ............ NO
    Flow Routing ........... YES
    Ponding Allowed ........ NO
    Water Quality .......... NO
  Infiltration Method ...... HORTON
  Flow Routing Method ...... DYNWAVE
  Surcharge Method ......... EXTRAN
  Starting Date ............ 08/28/2015 08:00:00
  Ending Date .............. 08/28/2015 16:00:00
  Antecedent Dry Days ...... 8.0
  Report Time Step ......... 00:01:00
  Wet Time Step ............ 00:01:00
  Dry Time Step ............ 00:01:00
  Routing Time Step ........ 30.00 sec
  Variable Time Step ....... YES
  Maximum Trials ........... 8
  Number of Threads ........ 2
  Head Tolerance ........... 0.001500 m
  
  
  **************************        Volume         Depth
  Runoff Quantity Continuity     hectare-m            mm
  **************************     ---------       -------
  Initial LID Storage ......         0.072         1.184
  Total Precipitation ......         3.693        60.969
  Evaporation Loss .........         0.000         0.000
  Infiltration Loss ........         0.201         3.311
  Surface Runoff ...........         2.824        46.614
  Final Storage ............         0.742        12.243
  Continuity Error (%) .....        -0.023
  
  
  **************************        Volume        Volume
  Flow Routing Continuity        hectare-m      10^6 ltr
  **************************     ---------     ---------
  Dry Weather Inflow .......         0.630         6.296
  Wet Weather Inflow .......         2.824        28.238
  Groundwater Inflow .......         0.000         0.000
  RDII Inflow ..............         0.000         0.000
  External Inflow ..........         0.105         1.045
  External Outflow .........         2.342        23.423
  Flooding Loss ............         1.206        12.056
  Evaporation Loss .........         0.000         0.000
  Exfiltration Loss ........         0.000         0.000
  Initial Stored Volume ....         0.303         3.031
  Final Stored Volume ......         0.320         3.202
  Continuity Error (%) .....        -0.185
  
  
  *************************
  Highest Continuity Errors
  *************************
  Node YS02001884 (5.16%)
  Node YS02001583 (-4.90%)
  Node HS02004842 (2.05%)
  Node YS02001774 (1.08%)
  Node HS02004817 (1.02%)
  
  
  ***************************
  Time-Step Critical Elements
  ***************************
  Link WS02006280WS02006229 (54.32%)
  Link WS02006252WS02006251 (19.67%)
  Link YS02001791YS02001793 (6.08%)
  Link WS02004404WS02004405 (5.09%)
  Link WS02006238WS02006235 (4.60%)
  
  
  ********************************
  Highest Flow Instability Indexes
  ********************************
  Link WS02006113WS02006111 (23)
  Link WS02004404WS02004405 (17)
  Link WS02006252WS02006251 (16)
  Link WS02006238WS02006235 (15)
  Link WS02006256WS02006235 (15)
  
  
  *************************
  Routing Time Step Summary
  *************************
  Minimum Time Step           :     0.00 sec
  Average Time Step           :     2.55 sec
  Maximum Time Step           :     6.46 sec
  Percent in Steady State     :    -0.00
  Average Iterations per Step :     3.18
  Percent Not Converging      :    10.66
  
  
  ***************************
  Subcatchment Runoff Summary
  ***************************
  
  ------------------------------------------------------------------------------------------------------------------------------
                            Total      Total      Total      Total     Imperv       Perv      Total       Total     Peak  Runoff
                           Precip      Runon       Evap      Infil     Runoff     Runoff     Runoff      Runoff   Runoff   Coeff
  Subcatchment                 mm         mm         mm         mm         mm         mm         mm    10^6 ltr      LPS
  ------------------------------------------------------------------------------------------------------------------------------
  sub0                      60.97       0.00       0.00       0.97      55.46       3.30      58.75        0.05    41.67   0.964
  sub1                      60.97       0.00       0.00       1.48      47.53       4.54      52.06        0.35   254.96   0.854
  sub10                     60.97       0.00       0.00       0.94      44.54       3.02      47.56        0.52   402.90   0.780
  sub11                     60.97       0.00       0.00       0.86      41.39       2.82      44.22        0.51   420.55   0.725
  sub12                     60.97       0.00       0.00       1.50      42.08       4.93      47.01        0.41   357.50   0.771
  sub14                     60.97       0.00       0.00       0.93      39.20       3.03      42.24        0.40   324.19   0.693
  sub15                     60.97       0.00       0.00       4.27      35.24      11.18      46.43        0.80   572.29   0.761
  sub16                     60.97       0.00       0.00       4.52      34.38      12.80      47.18        0.49   392.59   0.774
  sub17                     60.97       0.00       0.00       4.85      37.94      13.42      51.36        0.44   340.21   0.842
  sub2                      60.97       0.00       0.00       6.79      34.74      14.10      48.84        0.46   271.75   0.801
  sub22                     60.97       0.00       0.00       7.60      32.90      17.79      50.69        3.20  2125.15   0.831
  sub23                     60.97       0.00       0.00       5.70      33.88      14.66      48.54        2.32  1670.03   0.796
  sub3                      60.97       0.00       0.00       7.29      34.40      13.42      47.82        1.08   578.72   0.784
  sub4                      60.97       0.00       0.00       1.62      46.80       4.32      51.12        1.07   621.22   0.838
  sub5                      60.97       0.00       0.00       0.84      45.98       2.70      48.68        0.55   413.85   0.798
  sub60                     60.97       0.00       0.00       1.34      40.49       4.31      44.79        0.59   486.21   0.735
  sub61                     60.97       0.00       0.00       2.06      40.45       6.42      46.87        0.86   709.40   0.769
  sub62                     60.97       0.00       0.00       0.91      43.12       2.93      46.05        1.26   962.08   0.755
  sub63                     60.97       0.00       0.00       3.79      34.65      10.69      45.33        1.03   801.91   0.744
  sub64                     60.97       0.00       0.00       1.82      39.45       5.31      44.76        1.08   781.59   0.734
  sub65                     60.97       0.00       0.00       1.67      42.57       4.85      47.42        1.31   914.44   0.778
  sub66                     60.97       0.00       0.00       4.47      33.50       9.55      43.05        2.01  1180.38   0.706
  sub67                     60.97       0.00       0.00       0.90      44.21       3.03      47.24        0.88   755.18   0.775
  sub68                     60.97       0.00       0.00       1.58      39.04       4.92      43.97        1.21   964.27   0.721
  sub69                     60.97       0.00       0.00       1.44      40.99       5.81      46.80        1.73  1182.25   0.768
  sub7                      60.97       0.00       0.00       0.99      42.02       3.26      45.28        0.15   127.09   0.743
  sub70                     60.97       0.00       0.00       4.93      32.84      12.04      44.88        1.30   676.81   0.736
  sub71                     60.97       0.00       0.00       0.84      39.17       2.65      41.82        1.09   789.02   0.686
  sub72                     60.97       0.00       0.00       0.80      42.31       2.46      44.77        0.62   407.36   0.734
  sub8                      60.97       0.00       0.00       0.97      40.83       3.16      44.00        0.28   227.96   0.722
  sub9                      60.97       0.00       0.00       0.94      39.59       3.06      42.65        0.21   166.06   0.700
  

  ***********************
  LID Performance Summary
  ***********************

  --------------------------------------------------------------------------------------------------------------------
                                         Total      Evap     Infil   Surface    Drain    Initial     Final  Continuity
                                        Inflow      Loss      Loss   Outflow   Outflow   Storage   Storage       Error
  Subcatchment      LID Control             mm        mm        mm        mm        mm        mm        mm           %
  --------------------------------------------------------------------------------------------------------------------
  sub1              GreenRoof            60.97      0.00      0.00      0.00      0.00      7.05     68.02       -0.00
  sub10             GreenRoof            60.97      0.00      0.00      0.00      0.00      7.05     68.02       -0.00
  sub11             GreenRoof            60.97      0.00      0.00      0.00      0.00      7.05     68.02       -0.00
  sub12             GreenRoof            60.97      0.00      0.00      0.00      0.00      7.05     68.02       -0.00
  sub14             GreenRoof            60.97      0.00      0.00      0.00      0.00      7.05     68.02       -0.00
  sub15             GreenRoof            60.97      0.00      0.00      0.00      0.00      7.05     68.02       -0.00
  sub16             GreenRoof            60.97      0.00      0.00      0.00      0.00      7.05     68.02       -0.00
  sub17             GreenRoof            60.97      0.00      0.00      0.00      0.00      7.05     68.02       -0.00
  sub2              GreenRoof            60.97      0.00      0.00      0.00      0.00      7.05     68.02       -0.00
  sub22             GreenRoof            60.97      0.00      0.00      0.00      0.00      7.05     68.02       -0.00
  sub23             GreenRoof            60.97      0.00      0.00      0.00      0.00      7.05     68.02       -0.00
  sub3              GreenRoof            60.97      0.00      0.00      0.00      0.00      7.05     68.02       -0.00
  sub4              GreenRoof            60.97      0.00      0.00      0.00      0.00      7.05     68.02       -0.00
  sub5              GreenRoof            60.97      0.00      0.00      0.00      0.00      7.05     68.02       -0.00
  sub60             GreenRoof            60.97      0.00      0.00      0.00      0.00      7.05     68.02       -0.00
  sub61             GreenRoof            60.97      0.00      0.00      0.00      0.00      7.05     68.02       -0.00
  sub62             GreenRoof            60.97      0.00      0.00      0.00      0.00      7.05     68.02       -0.00
  sub63             GreenRoof            60.97      0.00      0.00      0.00      0.00      7.05     68.02       -0.00
  sub64             GreenRoof            60.97      0.00      0.00      0.00      0.00      7.05     68.02       -0.00
  sub65             GreenRoof            60.97      0.00      0.00      0.00      0.00      7.05     68.02       -0.00
  sub66             GreenRoof            60.97      0.00      0.00      0.00      0.00      7.05     68.02       -0.00
  sub67             GreenRoof            60.97      0.00      0.00      0.00      0.00      7.05     68.02       -0.00
  sub68             GreenRoof            60.97      0.00      0.00      0.00      0.00      7.05     68.02       -0.00
  sub69             GreenRoof            60.97      0.00      0.00      0.00      0.00      7.05     68.02       -0.00
  sub7              GreenRoof            60.97      0.00      0.00      0.00      0.00      7.05     68.02       -0.00
  sub70             GreenRoof            60.97      0.00      0.00      0.00      0.00      7.05     68.02       -0.00
  sub71             GreenRoof            60.97      0.00      0.00      0.00      0.00      7.05     68.02       -0.00
  sub72             GreenRoof            60.97      0.00      0.00      0.00      0.00      7.05     68.02       -0.00
  sub8              GreenRoof            60.97      0.00      0.00      0.00      0.00      7.05     68.02       -0.00
  sub9              GreenRoof            60.97      0.00      0.00      0.00      0.00      7.05     68.02       -0.00
  
  ******************
  Node Depth Summary
  ******************
  
  ---------------------------------------------------------------------------------
                                 Average  Maximum  Maximum  Time of Max    Reported
                                   Depth    Depth      HGL   Occurrence   Max Depth
  Node                 Type       Meters   Meters   Meters  days hr:min      Meters
  ---------------------------------------------------------------------------------
  HS02004478           JUNCTION     0.23     1.59    10.82     0  02:12        1.58
  HS02004479           JUNCTION     0.31     1.68    10.88     0  02:11        1.67
  HS02004480           JUNCTION     0.27     1.65    10.89     0  02:09        1.63
  HS02004770           JUNCTION     0.28     1.42    11.25     0  02:06        1.42
  HS02004777           JUNCTION     0.30     1.48    11.28     0  02:06        1.45
  HS02004785           JUNCTION     0.19     1.49    11.39     0  02:06        1.34
  HS02004788           JUNCTION     0.16     1.42    11.32     0  02:06        1.34
  HS02004792           JUNCTION     0.22     1.60    11.12     0  02:06        1.60
  HS02004799           JUNCTION     0.34     1.76    10.97     0  02:09        1.76
  HS02004802           JUNCTION     0.33     1.80    10.93     0  02:12        1.80
  HS02004807           JUNCTION     0.30     1.92    11.09     0  02:09        1.92
  HS02004817           JUNCTION     0.60     2.44    11.29     0  02:09        2.37
  HS02004824           JUNCTION     0.17     2.01    11.41     0  02:09        1.95
  HS02004830           JUNCTION     0.17     2.03    11.50     0  02:09        1.91
  HS02004837           JUNCTION     0.14     2.00    11.58     0  02:09        1.84
  HS02004842           JUNCTION     0.43     2.22    11.49     0  02:09        2.15
  HS02004848           JUNCTION     0.12     2.07    11.67     0  02:09        1.83
  HS02004852           JUNCTION     0.13     2.12    11.63     0  02:09        1.89
  HS02004856           JUNCTION     0.19     2.07    11.50     0  02:09        1.95
  HS02004862           JUNCTION     0.14     2.00    11.38     0  02:09        1.93
  HS02004870           JUNCTION     0.13     2.01    11.29     0  02:09        1.92
  HS02004876           JUNCTION     0.19     2.11    11.14     0  02:09        2.01
  HS02004881           JUNCTION     0.12     1.85    10.88     0  02:09        1.76
  HS02004901           JUNCTION     0.28     1.42    11.24     0  02:06        1.42
  WS02001211           JUNCTION     0.63     0.82     5.65     0  02:16        0.82
  WS02001212           JUNCTION     0.37     0.58     5.64     0  02:16        0.58
  WS02001213           JUNCTION     0.58     0.87     5.63     0  02:17        0.87
  WS02003059           JUNCTION     0.65     0.94     5.63     0  02:17        0.94
  WS02003060           JUNCTION     0.37     0.69     5.62     0  02:15        0.69
  WS02003066           JUNCTION     0.22     0.46     6.01     0  02:13        0.46
  WS02003067           JUNCTION     0.52     0.89     6.21     0  02:12        0.89
  WS02003069           JUNCTION     0.41     0.78     5.37     0  02:15        0.78
  WS02003072           JUNCTION     0.47     0.82     5.19     0  02:15        0.82
  WS02003073           JUNCTION     0.28     0.52     4.58     0  02:16        0.52
  WS02004138           JUNCTION     0.13     0.14     7.39     0  00:29        0.14
  WS02004139           JUNCTION     0.56     0.75     5.66     0  02:16        0.75
  WS02004401           JUNCTION     0.74     1.91     7.91     0  02:13        1.90
  WS02004402           JUNCTION     0.75     1.85     7.81     0  02:12        1.84
  WS02004403           JUNCTION     0.76     1.77     7.70     0  02:13        1.76
  WS02004404           JUNCTION     0.82     1.78     7.63     0  02:13        1.77
  WS02004405           JUNCTION     0.81     1.72     7.57     0  02:13        1.72
  WS02004406           JUNCTION     0.80     1.61     7.44     0  02:13        1.60
  WS02004407           JUNCTION     0.25     0.96     7.28     0  02:13        0.96
  WS02004409           JUNCTION     0.50     1.41     7.18     0  02:13        1.41
  WS02004410           JUNCTION     0.51     1.31     7.03     0  02:13        1.31
  WS02004411           JUNCTION     0.52     1.22     6.90     0  02:13        1.21
  WS02004412           JUNCTION     0.52     1.12     6.76     0  02:13        1.11
  WS02004413           JUNCTION     0.66     1.15     6.62     0  02:14        1.15
  WS02006109           JUNCTION     0.93     2.64     9.26     0  02:06        2.64
  WS02006110           JUNCTION     0.87     2.41     8.99     0  02:13        2.40
  WS02006111           JUNCTION     0.40     1.79     8.50     0  02:13        1.79
  WS02006112           JUNCTION     0.94     2.43     8.32     0  02:12        2.42
  WS02006113           JUNCTION     0.47     1.86     8.75     0  02:13        1.85
  WS02006115           JUNCTION     0.66     2.01     8.15     0  02:13        2.01
  WS02006116           JUNCTION     0.73     2.00     8.04     0  02:13        2.00
  WS02006228           JUNCTION     0.98     3.03     9.68     0  02:11        3.02
  WS02006229           JUNCTION     0.99     3.22     9.92     0  02:12        3.22
  WS02006230           JUNCTION     0.91     2.65     9.39     0  02:03        2.65
  WS02006231           JUNCTION     0.63     2.19     9.31     0  02:32        2.19
  WS02006232           JUNCTION     0.72     2.18     9.22     0  02:03        2.18
  WS02006234           JUNCTION     0.59     1.96     9.12     0  01:55        1.96
  WS02006235           JUNCTION     0.60     1.98     9.15     0  01:55        1.98
  WS02006238           JUNCTION     0.63     1.99     9.13     0  02:35        1.95
  WS02006239           JUNCTION     0.56     1.84     9.05     0  02:35        1.80
  WS02006240           JUNCTION     0.52     1.66     8.96     0  02:35        1.64
  WS02006242           JUNCTION     0.55     1.55     8.82     0  01:52        1.55
  WS02006243           JUNCTION     0.45     1.48     8.90     0  01:52        1.37
  WS02006245           JUNCTION     0.44     1.56     9.04     0  01:55        1.27
  WS02006247           JUNCTION     0.44     1.47     8.97     0  01:55        1.23
  WS02006248           JUNCTION     0.39     1.10     8.69     0  01:55        1.10
  WS02006249           JUNCTION     0.41     1.09     8.69     0  01:55        1.09
  WS02006251           JUNCTION     0.50     2.20     9.87     0  02:08        2.15
  WS02006252           JUNCTION     0.33     1.50     9.74     0  00:00        1.50
  WS02006253           JUNCTION     0.58     3.06    10.70     0  02:09        3.03
  WS02006256           JUNCTION     0.84     2.35     9.28     0  00:00        2.35
  WS02006280           JUNCTION     0.29     1.74    10.02     0  02:12        1.73
  WS02006284           JUNCTION     0.56     1.95    10.35     0  02:11        1.94
  WS02006287           JUNCTION     0.30     1.74    10.70     0  02:11        1.73
  WSF200               JUNCTION     0.21     0.53     5.76     0  02:13        0.53
  YS02001580           JUNCTION     0.07     1.05     9.59     0  02:06        0.77
  YS02001583           JUNCTION     0.10     1.04     9.54     0  02:06        0.81
  YS02001586           JUNCTION     0.18     1.13     9.30     0  02:06        1.13
  YS02001590           JUNCTION     0.27     1.40     9.26     0  02:06        1.37
  YS02001593           JUNCTION     0.20     1.32     9.18     0  02:06        1.28
  YS02001596           JUNCTION     0.27     1.68     9.10     0  02:06        1.65
  YS02001600           JUNCTION     0.34     1.87     9.00     0  02:06        1.86
  YS02001601           JUNCTION     0.53     2.06     8.90     0  02:05        2.06
  YS02001602           JUNCTION     0.45     1.87     8.77     0  02:05        1.87
  YS02001605           JUNCTION     0.41     1.78     8.68     0  02:15        1.78
  YS02001607           JUNCTION     0.41     1.65     8.49     0  02:10        1.64
  YS02001610           JUNCTION     0.45     1.68     8.48     0  02:06        1.68
  YS02001613           JUNCTION     0.41     1.66     8.51     0  02:11        1.66
  YS02001616           JUNCTION     0.34     1.61     8.52     0  02:11        1.61
  YS02001619           JUNCTION     0.32     1.61     8.54     0  02:11        1.61
  YS02001622           JUNCTION     0.30     1.57     8.47     0  02:11        1.56
  YS02001625           JUNCTION     0.56     1.78     8.38     0  02:06        1.78
  YS02001629           JUNCTION     0.42     1.85     8.40     0  02:06        1.85
  YS02001633           JUNCTION     0.50     2.03     8.49     0  02:11        2.03
  YS02001641           JUNCTION     0.48     1.97     8.40     0  02:11        1.97
  YS02001644           JUNCTION     0.47     1.92     8.35     0  02:11        1.92
  YS02001647           JUNCTION     0.25     1.78     8.39     0  02:11        1.72
  YS02001649           JUNCTION     0.28     2.00     8.39     0  02:12        1.91
  YS02001652           JUNCTION     0.17     1.89     8.48     0  02:12        1.74
  YS02001655           JUNCTION     0.12     1.86     8.71     0  02:11        1.53
  YS02001658           JUNCTION     0.09     1.82     8.96     0  02:11        1.28
  YS02001661           JUNCTION     0.14     1.57     8.97     0  02:12        1.07
  YS02001664           JUNCTION     0.06     0.66     8.59     0  02:12        0.53
  YS02001745           JUNCTION     0.05     0.89     8.40     0  02:12        0.88
  YS02001748           JUNCTION     0.08     1.83     8.91     0  02:11        1.27
  YS02001751           JUNCTION     0.09     1.78     8.66     0  02:11        1.42
  YS02001754           JUNCTION     0.13     1.81     8.41     0  02:11        1.64
  YS02001757           JUNCTION     0.27     2.05     8.31     0  02:11        1.93
  YS02001759           JUNCTION     0.22     2.03     8.40     0  02:11        1.92
  YS02001762           JUNCTION     0.21     2.03     8.43     0  02:11        1.90
  YS02001765           JUNCTION     0.19     2.01     8.46     0  02:11        1.87
  YS02001767           JUNCTION     0.20     1.98     8.47     0  02:11        1.86
  YS02001770           JUNCTION     0.21     1.95     8.44     0  02:11        1.91
  YS02001774           JUNCTION     0.28     2.00     8.42     0  02:11        1.97
  YS02001779           JUNCTION     0.11     1.68     8.37     0  02:10        1.68
  YS02001783           JUNCTION     0.23     1.37     7.51     0  02:09        1.25
  YS02001784           JUNCTION     0.24     1.20     7.26     0  02:09        1.13
  YS02001786           JUNCTION     0.21     0.94     6.97     0  02:09        0.88
  YS02001788           JUNCTION     0.15     0.62     6.60     0  02:12        0.62
  YS02001790           JUNCTION     0.18     0.73     6.37     0  02:12        0.72
  YS02001791           JUNCTION     0.11     0.44     5.91     0  02:12        0.43
  YS02001793           JUNCTION     0.06     0.26     5.09     0  02:10        0.23
  YS02001882           JUNCTION     0.28     1.70     8.42     0  02:09        1.66
  YS02001884           JUNCTION     0.37     1.78     8.40     0  02:09        1.75
  YS02001887           JUNCTION     0.45     1.83     8.37     0  02:09        1.82
  YS02001890           JUNCTION     0.47     1.81     8.32     0  02:09        1.81
  YS02001895           JUNCTION     0.25     1.57     8.31     0  02:15        1.57
  YS02001898           JUNCTION     0.26     1.57     8.30     0  02:09        1.56
  YS02001901           JUNCTION     0.37     1.68     8.29     0  02:13        1.67
  YS02001904           JUNCTION     0.35     1.64     8.27     0  02:10        1.63
  YS02001907           JUNCTION     0.66     1.96     8.25     0  02:09        1.96
  YS02001910           JUNCTION     0.46     1.99     8.50     0  02:10        1.84
  YS02001915           JUNCTION     0.28     1.95     8.67     0  02:10        1.72
  YS02001918           JUNCTION     0.14     1.81     8.88     0  02:10        1.38
  YS02001920           JUNCTION     0.22     2.11     9.12     0  02:10        1.45
  YS02001923           JUNCTION     0.10     2.03     9.29     0  02:10        1.21
  YS02001926           JUNCTION     0.15     1.90     9.35     0  02:10        1.04
  YS02001929           JUNCTION     0.08     1.78     9.47     0  02:10        0.79
  YS02006553           JUNCTION     0.66     2.00     8.29     0  02:09        1.98
  YS02006556           JUNCTION     0.64     2.02     8.33     0  02:09        1.96
  YS02006558           JUNCTION     0.68     2.06     8.33     0  02:09        2.00
  YS02006561           JUNCTION     0.14     1.07     7.73     0  02:09        0.92
  YS02163301           JUNCTION     0.44     1.94     8.46     0  02:06        1.94
  YS02163601           JUNCTION     0.53     2.06     8.46     0  02:11        2.06
  YS02164001           JUNCTION     0.46     1.97     8.43     0  02:11        1.97
  YSB1154              JUNCTION     0.44     1.92    10.98     0  02:13        1.91
  YSB1171              JUNCTION     0.58     1.95    10.85     0  02:09        1.95
  YSB1174              JUNCTION     0.40     1.81    10.91     0  02:11        1.80
  YSB6556              JUNCTION     0.34     1.74    10.91     0  02:13        1.74
  CC-1                 OUTFALL      0.00     0.00     0.00     0  00:00        0.00
  CC-2                 OUTFALL      0.00     0.00     0.00     0  00:00        0.00
  JK-1                 OUTFALL      0.00     0.00     0.00     0  00:00        0.00
  JK-2                 OUTFALL      0.00     0.00     0.00     0  00:00        0.00
  WSC                  OUTFALL      0.28     0.52     1.19     0  02:16        0.52
  CC-storage           STORAGE      0.60     1.17     6.67     0  02:36        1.17
  JK-storage           STORAGE      1.42     4.10     4.90     0  02:10        4.10
  XR-storage           STORAGE      7.83     9.26     7.26     0  08:00        9.26
  
  
  *******************
  Node Inflow Summary
  *******************
  
  -------------------------------------------------------------------------------------------------
                                  Maximum  Maximum                  Lateral       Total        Flow
                                  Lateral    Total  Time of Max      Inflow      Inflow     Balance
                                   Inflow   Inflow   Occurrence      Volume      Volume       Error
  Node                 Type           LPS      LPS  days hr:min    10^6 ltr    10^6 ltr     Percent
  -------------------------------------------------------------------------------------------------
  HS02004478           JUNCTION      0.00  2305.33     0  02:12           0        7.45      -0.010
  HS02004479           JUNCTION      0.00   444.27     0  02:09           0       0.688       0.129
  HS02004480           JUNCTION      0.00  2108.79     0  02:07           0        5.58       0.046
  HS02004770           JUNCTION   1670.03  1670.03     0  02:13        2.32        2.52       0.123
  HS02004777           JUNCTION      0.03   750.42     0  02:05    0.000864        1.63       0.320
  HS02004785           JUNCTION      0.15   767.90     0  02:05     0.00432        1.63       0.022
  HS02004788           JUNCTION    573.96   822.62     0  02:13       0.847        2.47      -0.021
  HS02004792           JUNCTION   2125.43  2940.27     0  02:13        3.21        5.68       0.010
  HS02004799           JUNCTION    324.19  1769.29     0  02:07       0.402        5.04       0.055
  HS02004802           JUNCTION      0.00  1232.70     0  02:15           0        1.97       0.204
  HS02004807           JUNCTION    420.55  1453.19     0  02:14       0.514        2.05       0.199
  HS02004817           JUNCTION      0.60  1051.34     0  02:14      0.0173        1.59       1.030
  HS02004824           JUNCTION    621.27  1050.05     0  02:14        1.07        1.74       0.024
  HS02004830           JUNCTION      0.15   657.07     0  02:06     0.00432       0.833       0.122
  HS02004837           JUNCTION    409.25   827.49     0  02:06       0.708        1.08       0.056
  HS02004842           JUNCTION      0.00   831.64     0  02:07           0       0.633       2.096
  HS02004848           JUNCTION    578.72  1086.80     0  02:08        1.08        1.54      -0.008
  HS02004852           JUNCTION      0.00  1076.13     0  02:08           0        1.38      -0.010
  HS02004856           JUNCTION    166.06  1176.07     0  02:08       0.205        1.59       0.038
  HS02004862           JUNCTION    271.95  1226.28     0  02:08       0.461        2.05      -0.005
  HS02004870           JUNCTION    227.96  1327.40     0  02:08       0.281        2.33       0.015
  HS02004876           JUNCTION    254.96  1471.72     0  02:13       0.346        2.67       0.019
  HS02004881           JUNCTION    127.09  1599.05     0  02:13       0.153        2.83       0.019
  HS02004901           JUNCTION    392.59   640.99     0  02:13       0.494       0.755       0.243
  WS02001211           JUNCTION      7.35   204.26     0  02:48       0.212        5.44       0.612
  WS02001212           JUNCTION      0.00   211.39     0  02:47           0        5.41       0.290
  WS02001213           JUNCTION      0.00   216.60     0  02:47           0        5.39       0.331
  WS02003059           JUNCTION      0.00   221.82     0  02:47           0        5.38       0.594
  WS02003060           JUNCTION     16.53  1517.21     0  02:14       0.476        12.6       0.116
  WS02003066           JUNCTION      0.00  1323.22     0  02:13           0        6.75       0.021
  WS02003067           JUNCTION      0.00  1322.74     0  02:14           0        6.75       0.064
  WS02003069           JUNCTION      0.32  1517.27     0  02:15     0.00922        12.6       0.122
  WS02003072           JUNCTION      0.00  1517.22     0  02:15           0        12.5       0.166
  WS02003073           JUNCTION      1.82  1519.63     0  02:15      0.0524        12.6       0.172
  WS02004138           JUNCTION      0.00   380.00     0  00:00           0        5.25       0.054
  WS02004139           JUNCTION      0.32   191.14     0  00:29     0.00924        5.26       0.508
  WS02004401           JUNCTION      0.00  1322.53     0  02:13           0        6.86       0.150
  WS02004402           JUNCTION      0.00  1322.53     0  02:13           0        6.85       0.152
  WS02004403           JUNCTION      0.00  1322.68     0  02:13           0        6.84       0.149
  WS02004404           JUNCTION      0.16  1323.15     0  02:13     0.00467        6.83       0.123
  WS02004405           JUNCTION      0.04  1324.82     0  02:13      0.0011        6.82       0.185
  WS02004406           JUNCTION      0.00  1323.75     0  02:13           0        6.81       0.308
  WS02004407           JUNCTION      0.00  1323.57     0  02:13           0        6.79       0.021
  WS02004409           JUNCTION      0.00  1322.48     0  02:13           0        6.79       0.040
  WS02004410           JUNCTION      0.00  1322.59     0  02:13           0        6.79       0.068
  WS02004411           JUNCTION      0.00  1322.71     0  02:13           0        6.78       0.087
  WS02004412           JUNCTION      0.00  1323.09     0  02:13           0        6.78       0.116
  WS02004413           JUNCTION      0.00  1323.09     0  02:13           0        6.77       0.200
  WS02006109           JUNCTION      1.23  1289.62     0  02:12      0.0354        6.68       0.153
  WS02006110           JUNCTION      0.00  1120.66     0  02:27           0        6.46       0.118
  WS02006111           JUNCTION      0.00  1120.72     0  02:27           0        6.45       0.011
  WS02006112           JUNCTION    340.21  1322.49     0  02:13       0.441        6.89       0.271
  WS02006113           JUNCTION      0.00  1120.90     0  02:27           0        6.45       0.027
  WS02006115           JUNCTION      0.00  1322.55     0  02:13           0        6.87       0.095
  WS02006116           JUNCTION      0.00  1322.76     0  02:13           0        6.86       0.076
  WS02006228           JUNCTION      0.00  1289.05     0  02:12           0        6.65       0.072
  WS02006229           JUNCTION      0.00  2306.99     0  02:12           0        8.58       0.088
  WS02006230           JUNCTION     10.28  1026.95     0  02:12       0.296         3.1       0.246
  WS02006231           JUNCTION      0.00   453.32     0  02:09           0        2.05      -0.161
  WS02006232           JUNCTION      0.00   453.44     0  02:09           0        2.04       0.218
  WS02006234           JUNCTION      0.00   453.16     0  02:10           0        2.03      -0.168
  WS02006235           JUNCTION      0.00   415.39     0  02:11           0        1.94       0.208
  WS02006238           JUNCTION      0.00   415.77     0  02:10           0        1.92      -0.126
  WS02006239           JUNCTION      0.00   415.36     0  02:10           0        1.92      -0.109
  WS02006240           JUNCTION      0.00   414.94     0  02:11           0        1.91      -0.011
  WS02006242           JUNCTION      0.00   415.09     0  02:11           0        1.91      -0.020
  WS02006243           JUNCTION      0.00   371.62     0  00:05           0        1.62       0.053
  WS02006245           JUNCTION      0.00   383.09     0  00:05           0        1.63       0.428
  WS02006247           JUNCTION      0.00   385.59     0  00:04           0        1.63       0.003
  WS02006248           JUNCTION      0.00   390.96     0  00:04           0        1.82      -0.073
  WS02006249           JUNCTION      0.00  1364.02     0  02:13           0        4.32       0.160
  WS02006251           JUNCTION      0.08  1640.95     0  02:13     0.00222        4.44      -0.012
  WS02006252           JUNCTION      0.00   620.90     0  02:15           0        1.89      -0.570
  WS02006253           JUNCTION     41.67  1641.15     0  02:13      0.0476         2.9       0.054
  WS02006256           JUNCTION      0.00   300.00     0  00:00           0       0.205      -0.434
  WS02006280           JUNCTION      0.00  2304.94     0  02:12           0        7.43       0.009
  WS02006284           JUNCTION      0.10  2304.97     0  02:12     0.00275        7.43      -0.004
  WS02006287           JUNCTION      0.00  2305.95     0  02:12           0        7.43       0.011
  WSF200               JUNCTION      0.00  1323.43     0  02:13           0        6.75       0.011
  YS02001580           JUNCTION      0.00   115.46     0  02:06           0       0.004      -4.638
  YS02001583           JUNCTION      0.00   167.52     0  02:06           0      0.0149      -4.671
  YS02001586           JUNCTION    676.81   676.81     0  02:15         1.3        1.31       0.097
  YS02001590           JUNCTION      0.00   318.08     0  02:25           0        1.07      -0.044
  YS02001593           JUNCTION      0.00   318.13     0  02:10           0        1.07       0.018
  YS02001596           JUNCTION      0.00   318.16     0  02:25           0        1.07       0.004
  YS02001600           JUNCTION      0.00   318.05     0  02:10           0        1.07       0.016
  YS02001601           JUNCTION   1182.25  1499.70     0  02:14        1.73         2.8       0.028
  YS02001602           JUNCTION      0.00   516.49     0  02:05           0        1.88       0.017
  YS02001605           JUNCTION      0.00   516.04     0  02:05           0        1.81       0.012
  YS02001607           JUNCTION      0.00   515.48     0  02:05           0        1.81       0.105
  YS02001610           JUNCTION      0.00   616.98     0  02:15           0        1.92       0.114
  YS02001613           JUNCTION      0.00   514.97     0  02:05           0        1.62       0.096
  YS02001616           JUNCTION      0.00   518.47     0  02:05           0        1.62       0.025
  YS02001619           JUNCTION   1180.38  1180.38     0  02:14        2.01        3.52      -0.002
  YS02001622           JUNCTION      0.00   939.41     0  02:08           0        3.41       0.003
  YS02001625           JUNCTION      0.00  1202.71     0  02:15           0        3.48       0.249
  YS02001629           JUNCTION      0.00   938.26     0  02:08           0        2.99       0.021
  YS02001633           JUNCTION    914.64  1423.74     0  02:08        1.31        4.19       0.081
  YS02001641           JUNCTION      0.00  1416.24     0  02:08           0         4.1       0.065
  YS02001644           JUNCTION    781.63  1841.25     0  02:08        1.08        5.17       0.064
  YS02001647           JUNCTION      0.00  1841.88     0  02:09           0        5.03       0.004
  YS02001649           JUNCTION      0.00  2143.53     0  02:09           0        6.06       0.006
  YS02001652           JUNCTION      0.00   912.93     0  02:13           0        1.03      -0.083
  YS02001655           JUNCTION      0.15   913.46     0  02:13     0.00443        1.03       0.048
  YS02001658           JUNCTION      0.00   912.89     0  02:13           0        1.03      -0.075
  YS02001661           JUNCTION      0.00   892.21     0  02:12           0        1.03       0.037
  YS02001664           JUNCTION    801.91   801.91     0  02:13        1.03        1.03      -0.007
  YS02001745           JUNCTION    486.22   486.22     0  02:13       0.589       0.589       0.207
  YS02001748           JUNCTION      0.04   612.91     0  02:11      0.0013        0.59      -0.274
  YS02001751           JUNCTION      0.01   553.36     0  02:12    0.000317       0.596       0.025
  YS02001754           JUNCTION      0.26   554.60     0  02:12     0.00749       0.608      -0.169
  YS02001757           JUNCTION      0.00  3556.07     0  02:12           0        8.76       0.078
  YS02001759           JUNCTION    709.44  1423.47     0  02:11       0.861         2.1       0.008
  YS02001762           JUNCTION      0.00   812.26     0  02:11           0        1.23      -0.019
  YS02001765           JUNCTION      0.00   815.51     0  02:11           0        1.24       0.023
  YS02001767           JUNCTION      0.54   818.04     0  02:11      0.0154        1.24      -0.002
  YS02001770           JUNCTION    962.24   962.24     0  02:13        1.27        1.31      -0.016
  YS02001774           JUNCTION      0.00   284.84     0  02:10           0       0.103       1.096
  YS02001779           JUNCTION      0.01   279.98     0  02:10    0.000144      0.0617      -0.795
  YS02001783           JUNCTION      0.00  1162.31     0  02:12           0        3.11       0.006
  YS02001784           JUNCTION      1.06  1162.86     0  02:12      0.0305        3.14       0.014
  YS02001786           JUNCTION      0.06  1162.92     0  02:12     0.00162        3.15       0.020
  YS02001788           JUNCTION      0.07  1162.82     0  02:12     0.00204        3.15       0.009
  YS02001790           JUNCTION      0.15  1174.73     0  02:12     0.00446        3.15       0.034
  YS02001791           JUNCTION      0.00  1293.12     0  02:12           0        3.15      -0.033
  YS02001793           JUNCTION      0.00  1249.64     0  02:12           0        3.15       0.007
  YS02001882           JUNCTION      0.00    57.66     0  02:08           0      0.0124       5.066
  YS02001884           JUNCTION      0.00    74.78     0  02:07           0      0.0481       5.440
  YS02001887           JUNCTION    755.63   755.63     0  02:13       0.892       0.925       0.475
  YS02001890           JUNCTION      0.00   755.94     0  02:13           0       0.884       0.569
  YS02001895           JUNCTION      0.00   516.75     0  02:16           0       0.825       0.167
  YS02001898           JUNCTION      0.00   517.00     0  02:16           0       0.824       0.020
  YS02001901           JUNCTION      0.00   517.13     0  02:16           0       0.827       0.390
  YS02001904           JUNCTION      0.00   517.08     0  02:16           0       0.831       0.324
  YS02001907           JUNCTION      0.00  1764.12     0  02:14           0        2.61       0.686
  YS02001910           JUNCTION      0.00  1250.95     0  02:13           0        1.79       0.394
  YS02001915           JUNCTION    789.04  1250.24     0  02:14        1.09        1.83       0.085
  YS02001918           JUNCTION      0.00   461.11     0  02:14           0       0.766      -0.002
  YS02001920           JUNCTION      2.87   460.85     0  02:14      0.0827       0.749       0.110
  YS02001923           JUNCTION      0.04   462.87     0  02:10     0.00109       0.651      -0.147
  YS02001926           JUNCTION      0.05   649.92     0  02:10      0.0015       0.631      -0.030
  YS02001929           JUNCTION    407.36   474.21     0  02:09       0.616       0.618      -0.125
  YS02006553           JUNCTION      0.00   798.18     0  02:24           0        1.92       0.619
  YS02006556           JUNCTION      0.00   797.43     0  02:24           0        1.93       0.412
  YS02006558           JUNCTION    965.15  1163.21     0  02:12        1.24        3.14       0.111
  YS02006561           JUNCTION      0.00  1163.08     0  02:09           0        3.11       0.000
  YS02163301           JUNCTION      0.00   936.40     0  02:08           0        2.98       0.054
  YS02163601           JUNCTION      0.11  1422.54     0  02:08     0.00317        4.09       0.119
  YS02164001           JUNCTION      0.00  1420.52     0  02:08           0        4.09       0.055
  YSB1154              JUNCTION    413.85   413.85     0  02:13       0.552       0.552       0.266
  YSB1171              JUNCTION      0.00   973.91     0  02:13           0        1.04       0.614
  YSB1174              JUNCTION    357.50   357.50     0  02:13       0.411       0.411       0.310
  YSB6556              JUNCTION      0.00   413.74     0  02:13           0       0.553       0.222
  CC-1                 OUTFALL       0.00   683.00     0  00:00           0        3.91       0.000
  CC-2                 OUTFALL       0.00   683.00     0  00:00           0        3.91       0.000
  JK-1                 OUTFALL       0.00  1000.00     0  00:00           0        1.53       0.000
  JK-2                 OUTFALL       0.00  1000.00     0  00:00           0        1.53       0.000
  WSC                  OUTFALL       0.00  1520.93     0  02:16           0        12.6       0.000
  CC-storage           STORAGE       0.00  3555.11     0  02:12           0          11      -0.255
  JK-storage           STORAGE       0.00  1274.06     0  02:15           0         3.3      -0.481
  XR-storage           STORAGE     200.00   200.00     0  00:00        5.76        6.36       0.001
  
  
  **********************
  Node Surcharge Summary
  **********************
  
  Surcharging occurs when water rises above the top of the highest conduit.
  ---------------------------------------------------------------------
                                               Max. Height   Min. Depth
                                   Hours       Above Crown    Below Rim
  Node                 Type      Surcharged         Meters       Meters
  ---------------------------------------------------------------------
  HS02004478           JUNCTION        0.40          0.667        0.273
  HS02004479           JUNCTION        0.51          0.875        0.175
  HS02004480           JUNCTION        0.55          0.936        0.164
  HS02004770           JUNCTION        0.47          0.720        0.000
  HS02004777           JUNCTION        0.47          0.780        0.000
  HS02004785           JUNCTION        0.43          0.790        0.000
  HS02004788           JUNCTION        0.42          0.720        0.000
  HS02004792           JUNCTION        0.52          0.900        0.000
  HS02004799           JUNCTION        0.63          1.060        0.000
  HS02004802           JUNCTION        0.55          1.093        0.117
  HS02004807           JUNCTION        0.53          1.220        0.000
  HS02004817           JUNCTION        1.02          1.740        0.000
  HS02004824           JUNCTION        0.42          1.310        0.000
  HS02004830           JUNCTION        0.39          1.330        0.000
  HS02004837           JUNCTION        0.36          1.295        0.045
  HS02004842           JUNCTION        0.48          1.520        0.000
  HS02004848           JUNCTION        0.32          1.370        0.000
  HS02004852           JUNCTION        0.35          1.420        0.000
  HS02004856           JUNCTION        0.33          1.300        0.000
  HS02004862           JUNCTION        0.36          1.300        0.000
  HS02004870           JUNCTION        0.38          1.308        0.092
  HS02004876           JUNCTION        0.44          1.407        0.153
  HS02004881           JUNCTION        0.42          1.152        0.298
  HS02004901           JUNCTION        0.48          0.720        0.000
  WS02004401           JUNCTION        1.27          0.908        0.752
  WS02004402           JUNCTION        1.29          0.848        0.892
  WS02004403           JUNCTION        1.29          0.768        1.262
  WS02004404           JUNCTION        1.40          0.779        2.001
  WS02004405           JUNCTION        1.38          0.725        2.075
  WS02004406           JUNCTION        1.35          0.609        1.841
  WS02004409           JUNCTION        0.80          0.412        1.948
  WS02004410           JUNCTION        0.79          0.314        2.226
  WS02004411           JUNCTION        0.73          0.220        2.310
  WS02004412           JUNCTION        0.65          0.116        2.194
  WS02004413           JUNCTION        1.07          0.152        2.048
  WS02006109           JUNCTION        1.64          1.820        0.000
  WS02006110           JUNCTION        1.47          1.496        0.354
  WS02006111           JUNCTION        1.00          0.980        0.890
  WS02006112           JUNCTION        1.52          1.433        0.247
  WS02006113           JUNCTION        1.02          1.059        0.871
  WS02006115           JUNCTION        1.22          1.003        1.247
  WS02006116           JUNCTION        1.23          0.942        1.348
  WS02006228           JUNCTION        1.63          2.198        0.002
  WS02006229           JUNCTION        0.77          1.044        0.026
  WS02006230           JUNCTION        1.37          1.570        0.000
  WS02006231           JUNCTION        1.40          1.479        0.051
  WS02006232           JUNCTION        1.47          1.480        0.000
  WS02006234           JUNCTION        1.38          1.240        0.000
  WS02006235           JUNCTION        1.40          1.271        0.019
  WS02006238           JUNCTION        1.40          1.268        0.162
  WS02006239           JUNCTION        1.37          1.104        0.186
  WS02006240           JUNCTION        1.36          0.954        0.436
  WS02006242           JUNCTION        1.37          0.820        0.000
  WS02006243           JUNCTION        1.32          0.770        0.000
  WS02006245           JUNCTION        1.28          0.849        0.001
  WS02006247           JUNCTION        1.28          0.760        0.000
  WS02006248           JUNCTION        1.24          0.380        0.000
  WS02006249           JUNCTION        1.25          0.390        0.000
  WS02006251           JUNCTION        1.13          1.171        0.009
  WS02006252           JUNCTION        1.29          1.100        0.000
  WS02006253           JUNCTION        1.15          2.018        0.462
  WS02006256           JUNCTION        5.68          2.050        0.000
  WS02006280           JUNCTION        0.64          0.694        0.086
  WS02006284           JUNCTION        0.57          0.667        0.133
  WS02006287           JUNCTION        0.49          0.741        0.149
  YS02001580           JUNCTION        0.45          0.450        0.000
  YS02001583           JUNCTION        0.45          0.399        0.101
  YS02001586           JUNCTION        0.53          0.510        0.000
  YS02001590           JUNCTION        0.59          0.750        0.000
  YS02001593           JUNCTION        0.59          0.700        0.140
  YS02001596           JUNCTION        0.69          0.947        0.123
  YS02001600           JUNCTION        0.81          1.190        0.000
  YS02001601           JUNCTION        1.16          1.440        0.000
  YS02001602           JUNCTION        1.04          1.270        0.000
  YS02001605           JUNCTION        0.98          1.179        0.001
  YS02001607           JUNCTION        0.53          0.645        0.035
  YS02001610           JUNCTION        0.56          0.680        0.000
  YS02001613           JUNCTION        0.53          0.664        0.036
  YS02001616           JUNCTION        0.49          0.609        0.001
  YS02001619           JUNCTION        0.48          0.606        0.004
  YS02001622           JUNCTION        0.47          0.570        0.050
  YS02001625           JUNCTION        0.63          0.780        0.000
  YS02001629           JUNCTION        0.41          0.470        0.000
  YS02001633           JUNCTION        0.64          1.015        0.045
  YS02001641           JUNCTION        0.54          0.966        0.134
  YS02001644           JUNCTION        0.49          0.920        0.000
  YS02001647           JUNCTION        0.32          0.779        0.121
  YS02001649           JUNCTION        0.36          1.000        0.050
  YS02001652           JUNCTION        0.25          0.856        0.274
  YS02001655           JUNCTION        0.17          0.863        0.337
  YS02001658           JUNCTION        0.10          0.820        0.480
  YS02001661           JUNCTION        0.01          0.500        0.890
  YS02001748           JUNCTION        0.04          0.750        0.440
  YS02001751           JUNCTION        0.12          0.781        0.419
  YS02001754           JUNCTION        0.17          0.756        0.394
  YS02001757           JUNCTION        0.36          1.051        0.159
  YS02001759           JUNCTION        0.31          1.031        0.179
  YS02001762           JUNCTION        0.29          1.033        0.117
  YS02001765           JUNCTION        0.26          1.011        0.089
  YS02001767           JUNCTION        0.25          0.978        0.052
  YS02001770           JUNCTION        0.24          0.920        0.000
  YS02001774           JUNCTION        0.28          0.997        0.053
  YS02001779           JUNCTION        0.18          0.680        0.000
  YS02001783           JUNCTION        0.38          0.572        1.028
  YS02001784           JUNCTION        0.36          0.396        1.094
  YS02001786           JUNCTION        0.27          0.144        1.286
  YS02001882           JUNCTION        0.34          0.703        0.127
  YS02001884           JUNCTION        0.35          0.721        0.149
  YS02001887           JUNCTION        0.38          0.784        0.166
  YS02001890           JUNCTION        0.39          0.760        0.000
  YS02001895           JUNCTION        0.33          0.567        0.183
  YS02001898           JUNCTION        0.33          0.535        0.205
  YS02001901           JUNCTION        0.37          0.676        0.194
  YS02001904           JUNCTION        0.36          0.638        0.212
  YS02001907           JUNCTION        0.57          0.950        0.000
  YS02001910           JUNCTION        0.41          0.994        0.106
  YS02001915           JUNCTION        0.34          0.954        0.046
  YS02001918           JUNCTION        0.27          0.810        0.000
  YS02001920           JUNCTION        0.28          1.108        0.032
  YS02001923           JUNCTION        0.03          0.820        0.000
  YS02001926           JUNCTION        0.04          0.900        0.000
  YS02001929           JUNCTION        0.01          0.780        0.000
  YS02006553           JUNCTION        0.58          1.003        0.187
  YS02006556           JUNCTION        0.49          0.975        0.375
  YS02006558           JUNCTION        0.48          0.965        0.435
  YS02006561           JUNCTION        0.23          0.270        0.880
  YS02163301           JUNCTION        0.62          0.943        0.087
  YS02163601           JUNCTION        0.66          1.058        0.022
  YS02164001           JUNCTION        0.56          0.974        0.126
  YSB1154              JUNCTION        0.72          1.223        0.177
  YSB1171              JUNCTION        0.73          1.100        0.000
  YSB1174              JUNCTION        0.66          1.105        0.145
  YSB6556              JUNCTION        0.61          1.039        0.061
  
  
  *********************
  Node Flooding Summary
  *********************
  
  Flooding refers to all water that overflows a node, whether it ponds or not.
  --------------------------------------------------------------------------
                                                             Total   Maximum
                                 Maximum   Time of Max       Flood    Ponded
                        Hours       Rate    Occurrence      Volume     Depth
  Node                 Flooded       LPS   days hr:min    10^6 ltr    Meters
  --------------------------------------------------------------------------
  HS02004770              0.31   1172.93      0  02:13       0.627     0.000
  HS02004777              0.01     59.82      0  02:06       0.000     0.000
  HS02004785              0.01    112.25      0  02:06       0.000     0.000
  HS02004788              0.01    214.20      0  02:06       0.001     0.000
  HS02004792              0.31   1798.12      0  02:13       1.046     0.000
  HS02004799              0.13    199.51      0  02:12       0.054     0.000
  HS02004807              0.07    224.71      0  02:14       0.034     0.000
  HS02004817              0.01     10.55      0  02:09       0.000     0.000
  HS02004824              0.01     13.76      0  02:09       0.000     0.000
  HS02004830              0.01     10.05      0  02:09       0.000     0.000
  HS02004842              0.01     87.32      0  02:09       0.001     0.000
  HS02004848              0.01     75.26      0  02:09       0.000     0.000
  HS02004852              0.01     22.91      0  02:09       0.000     0.000
  HS02004856              0.01    440.39      0  02:09       0.003     0.000
  HS02004862              0.01     89.12      0  02:09       0.000     0.000
  HS02004901              0.37    640.92      0  02:13       0.552     0.000
  WS02006109              0.34    307.39      0  02:13       0.212     0.000
  WS02006230              0.58    574.11      0  02:12       0.781     0.000
  WS02006232              0.15      0.64      0  02:32       0.000     0.000
  WS02006234              0.61    128.64      0  02:13       0.157     0.000
  WS02006242              0.68    137.33      0  02:11       0.291     0.000
  WS02006243              0.01    198.98      0  01:52       0.000     0.000
  WS02006247              0.01     25.70      0  01:55       0.000     0.000
  WS02006248              0.89    341.82      0  02:03       0.958     0.000
  WS02006249              1.16   1302.81      0  02:13       3.256     0.000
  WS02006252              0.38    620.17      0  02:15       0.367     0.000
  WS02006256              0.19    295.89      0  02:09       0.134     0.000
  YS02001580              0.01     92.69      0  02:06       0.000     0.000
  YS02001586              0.36    359.30      0  02:15       0.230     0.000
  YS02001590              0.01      4.74      0  02:06       0.000     0.000
  YS02001600              0.01      1.62      0  02:06       0.000     0.000
  YS02001601              0.46   1101.75      0  02:14       0.916     0.000
  YS02001602              0.35     61.99      0  02:17       0.070     0.000
  YS02001610              0.30    616.66      0  02:15       0.399     0.000
  YS02001625              0.25   1202.26      0  02:15       0.577     0.000
  YS02001629              0.08    246.74      0  02:13       0.042     0.000
  YS02001644              0.09    688.88      0  02:13       0.130     0.000
  YS02001770              0.01     14.47      0  02:11       0.000     0.000
  YS02001779              0.08    267.42      0  02:13       0.046     0.000
  YS02001890              0.11    244.99      0  02:13       0.054     0.000
  YS02001907              0.22   1552.34      0  02:13       0.680     0.000
  YS02001918              0.01    254.59      0  02:10       0.003     0.000
  YS02001923              0.01    340.72      0  02:10       0.001     0.000
  YS02001926              0.01     86.37      0  02:10       0.000     0.000
  YS02001929              0.01    172.04      0  02:10       0.001     0.000
  YSB1171                 0.21    973.74      0  02:13       0.428     0.000
  
  
  **********************
  Storage Volume Summary
  **********************
  
  --------------------------------------------------------------------------------------------------
                         Average     Avg  Evap Exfil       Maximum     Max    Time of Max    Maximum
                          Volume    Pcnt  Pcnt  Pcnt        Volume    Pcnt     Occurrence    Outflow
  Storage Unit           1000 m3    Full  Loss  Loss       1000 m3    Full    days hr:min        LPS
  --------------------------------------------------------------------------------------------------
  CC-storage               1.676      26     0     0         3.253      51       0  02:36    1783.53
  JK-storage               0.072      25     0     0         0.206      71       0  02:10    2300.00
  XR-storage               0.939      65     0     0         1.111      77       0  08:00     380.00
  
  
  ***********************
  Outfall Loading Summary
  ***********************
  
  -----------------------------------------------------------
                         Flow       Avg       Max       Total
                         Freq      Flow      Flow      Volume
  Outfall Node           Pcnt       LPS       LPS    10^6 ltr
  -----------------------------------------------------------
  CC-1                  39.48    683.00    683.00       3.906
  CC-2                  39.48    683.00    683.00       3.906
  JK-1                   9.26   1000.00   1000.00       1.527
  JK-2                   9.26   1000.00   1000.00       1.527
  WSC                   99.95    585.85   1520.93      12.555
  -----------------------------------------------------------
  System                39.49   3951.85   1520.93      23.423
  
  
  ********************
  Link Flow Summary
  ********************
  
  -----------------------------------------------------------------------------
                                 Maximum  Time of Max   Maximum    Max/    Max/
                                  |Flow|   Occurrence   |Veloc|    Full    Full
  Link                 Type          LPS  days hr:min     m/sec    Flow   Depth
  -----------------------------------------------------------------------------
  1                    CONDUIT   1520.93     0  02:16      3.71    0.53    0.52
  HS02004478WS02006287 CONDUIT   2305.95     0  02:12      2.62    0.65    1.00
  HS02004479HS02004480 CONDUIT    445.86     0  02:09      0.64    0.43    1.00
  HS02004480HS02004478 CONDUIT   2106.30     0  02:07      3.01    8.87    1.00
  HS02004770HS02004777 CONDUIT    750.39     0  02:05      1.07    1.37    1.00
  HS02004777HS02004785 CONDUIT    767.75     0  02:05      1.15    0.94    1.00
  HS02004785HS02004788 CONDUIT    609.08     0  02:28      1.36    4.59    1.00
  HS02004788HS02004792 CONDUIT    822.70     0  02:13      1.42    0.54    1.00
  HS02004792HS02004799 CONDUIT   1628.48     0  02:07      2.33    1.00    1.00
  HS02004799HS02004480 CONDUIT   1769.55     0  02:07      2.53    2.24    1.00
  HS02004802HS02004478 CONDUIT   1232.83     0  02:15      1.76    1.09    1.00
  HS02004807HS02004802 CONDUIT   1232.70     0  02:15      1.76    2.35    1.00
  HS02004817HS02004807 CONDUIT   1050.69     0  02:14      1.50    0.62    1.00
  HS02004817HS02004824 CONDUIT   1050.74     0  02:14      1.50    0.47    1.00
  HS02004824HS02004830 CONDUIT    656.92     0  02:06      0.96    0.86    1.00
  HS02004830HS02004837 CONDUIT    649.51     0  02:06      1.01    0.65    1.00
  HS02004837HS02004842 CONDUIT    831.64     0  02:07      1.19    0.50    1.00
  HS02004842HS02004848 CONDUIT    831.63     0  02:07      1.31    0.48    1.00
  HS02004848HS02004852 CONDUIT   1076.13     0  02:08      1.63    1.21    1.00
  HS02004852HS02004856 CONDUIT   1082.90     0  02:08      1.55    1.24    1.00
  HS02004856HS02004862 CONDUIT   1085.49     0  02:08      1.70    1.08    1.00
  HS02004862HS02004870 CONDUIT   1204.05     0  02:08      1.95    1.30    1.00
  HS02004870HS02004876 CONDUIT   1216.77     0  02:13      1.82    0.81    1.00
  HS02004876HS02004881 CONDUIT   1472.40     0  02:13      2.37   15.66    1.00
  HS02004881HS02006253 CONDUIT   1599.73     0  02:13      2.64    0.31    1.00
  HS02004901HS02004770 CONDUIT    265.78     0  02:24      0.38    1.00    1.00
  WS02001211WS02001212 CONDUIT    211.39     0  02:47      0.54    0.16    0.70
  WS02001212WS02001213 CONDUIT    216.60     0  02:47      1.04    0.33    0.56
  WS02001213WS02003059 CONDUIT    221.82     0  02:47      0.47    0.37    0.90
  WS02003059WS02003060 CONDUIT    229.03     0  02:48      0.66    0.15    0.82
  WS02003060WS02003069 CONDUIT   1516.95     0  02:15      2.09    0.59    0.61
  WS02003066WSF200     CONDUIT   1323.43     0  02:13      3.26    0.22    0.39
  WS02003067WS02003066 CONDUIT   1323.22     0  02:13      2.02    0.42    0.56
  WS02003069WS02003072 CONDUIT   1517.22     0  02:15      1.90    0.73    0.67
  WS02003072WS02003073 CONDUIT   1517.81     0  02:15      2.06    3.28    0.62
  WS02004138WS02004139 CONDUIT    190.82     0  00:29      2.16    0.04    0.42
  WS02004139WS02001211 CONDUIT    196.92     0  02:48      0.54    0.25    0.61
  WS02004401WS02004402 CONDUIT   1322.53     0  02:13      1.68    1.59    1.00
  WS02004402WS02004403 CONDUIT   1322.68     0  02:13      1.68    1.90    1.00
  WS02004403WS02004404 CONDUIT   1322.99     0  02:13      1.68    0.96    1.00
  WS02004404WS02004405 CONDUIT   1324.78     0  02:13      1.69   12.98    1.00
  WS02004405WS02004406 CONDUIT   1323.75     0  02:13      1.69    2.61    1.00
  WS02004406WS02004407 CONDUIT   1323.57     0  02:13      1.75    0.59    0.98
  WS02004407WS02004409 CONDUIT   1322.48     0  02:13      1.78    0.47    0.98
  WS02004409WS02004410 CONDUIT   1322.59     0  02:13      1.68    1.71    1.00
  WS02004410WS02004411 CONDUIT   1322.71     0  02:13      1.68    1.81    1.00
  WS02004411WS02004412 CONDUIT   1323.09     0  02:13      1.68    1.88    1.00
  WS02004412WS02004413 CONDUIT   1323.09     0  02:13      1.68    0.89    1.00
  WS02004413WS02003067 CONDUIT   1322.74     0  02:14      2.04    0.57    0.77
  WS02006109WS02006110 CONDUIT   1120.66     0  02:27      2.23    2.15    1.00
  WS02006110WS02006113 CONDUIT   1120.90     0  02:27      2.23    1.02    1.00
  WS02006111WS02006112 CONDUIT   1120.83     0  02:27      2.23    0.53    1.00
  WS02006112WS02006115 CONDUIT   1322.55     0  02:13      1.68    0.78    1.00
  WS02006113WS02006111 CONDUIT   1120.72     0  02:27      2.63    1.34    1.00
  WS02006115WS02006116 CONDUIT   1322.76     0  02:13      1.68    1.70    1.00
  WS02006116WS02004401 CONDUIT   1322.53     0  02:13      1.68    1.82    1.00
  WS02006228WS02006109 CONDUIT   1288.39     0  02:12      2.56    5.63    1.00
  WS02006229WS02006228 CONDUIT   1289.05     0  02:12      2.56    4.27    1.00
  WS02006230WS02006229 CONDUIT   1016.67     0  02:12      2.64   22.63    1.00
  WS02006231WS02006230 CONDUIT    453.32     0  02:09      1.21    6.88    1.00
  WS02006232WS02006231 CONDUIT    453.44     0  02:09      1.18    0.95    1.00
  WS02006234WS02006232 CONDUIT    453.16     0  02:10      1.41    0.92    1.00
  WS02006235WS02006234 CONDUIT    412.38     0  02:15      1.21    4.35    1.00
  WS02006238WS02006235 CONDUIT    415.77     0  02:10      1.45    0.93    1.00
  WS02006239WS02006238 CONDUIT    415.36     0  02:10      1.11    1.33    1.00
  WS02006240WS02006239 CONDUIT    414.94     0  02:11      1.26    1.31    1.00
  WS02006242WS02006240 CONDUIT    415.09     0  02:11      1.14    1.65    1.00
  WS02006243WS02006242 CONDUIT    357.62     0  00:05      1.34    0.76    1.00
  WS02006245WS02006243 CONDUIT    371.62     0  00:05      1.39    1.10    1.00
  WS02006247WS02006245 CONDUIT    383.09     0  00:05      1.37    3.04    1.00
  WS02006248WS02006247 CONDUIT    385.59     0  00:04      1.38    0.84    1.00
  WS02006249WS02006248 CONDUIT    390.96     0  00:04      1.38    2.14    1.00
  WS02006251WS02006249 CONDUIT   1364.02     0  02:13      3.54    3.93    1.00
  WS02006252WS02006251 CONDUIT    406.12     0  02:39     19.66    1.49    1.00
  WS02006253WS02006251 CONDUIT   1640.87     0  02:13      4.26    4.92    1.00
  WS02006256WS02006235 CONDUIT    288.93     0  00:00      4.23    3.06    1.00
  WS02006280WS02006229 CONDUIT   2306.99     0  02:12      4.28    0.49    1.00
  WS02006284WS02006280 CONDUIT   2304.94     0  02:12      3.02    0.97    1.00
  WS02006287WS02006284 CONDUIT   2304.87     0  02:12      2.93    1.07    1.00
  WSF200WS02003060     CONDUIT   1323.78     0  02:14      2.30    0.29    0.51
  YS02001580YS02001583 CONDUIT    115.46     0  02:06      0.67    0.45    1.00
  YS02001583YS02001586 CONDUIT    164.15     0  02:06      0.69    0.25    1.00
  YS02001586YS02001590 CONDUIT    318.08     0  02:25      1.27    0.56    1.00
  YS02001590YS02001593 CONDUIT    318.13     0  02:10      1.13    2.00    1.00
  YS02001593YS02001596 CONDUIT    318.16     0  02:25      1.77    0.50    1.00
  YS02001596YS02001600 CONDUIT    318.05     0  02:10      1.24    0.62    1.00
  YS02001600YS02001601 CONDUIT    317.90     0  02:10      1.12    0.55    1.00
  YS02001601YS02001602 CONDUIT    516.49     0  02:05      1.83    1.87    1.00
  YS02001602YS02001605 CONDUIT    516.04     0  02:05      1.83   10.92    1.00
  YS02001605YS02001607 CONDUIT    515.48     0  02:05      1.82    2.83    1.00
  YS02001607YS02001610 CONDUIT    514.96     0  02:05      0.66    0.49    1.00
  YS02001610YS02001613 CONDUIT    514.97     0  02:05      0.66    0.59    1.00
  YS02001613YS02001616 CONDUIT    518.47     0  02:05      0.67    0.44    1.00
  YS02001616YS02001619 CONDUIT    507.85     0  02:33      0.69    0.88    1.00
  YS02001619YS02001622 CONDUIT    939.41     0  02:08      1.20    1.38    1.00
  YS02001622YS02001625 CONDUIT    938.30     0  02:08      1.19    0.50    1.00
  YS02001625YS02001629 CONDUIT    938.26     0  02:08      1.19    0.45    1.00
  YS02001629YS02163301 CONDUIT    936.40     0  02:08      1.19    1.15    1.00
  YS02001633YS02163601 CONDUIT   1422.43     0  02:08      1.81    1.49    1.00
  YS02001641YS02001644 CONDUIT   1414.48     0  02:08      1.80    4.57    1.00
  YS02001644YS02001647 CONDUIT   1841.88     0  02:09      2.36    1.08    1.00
  YS02001647YS02001649 CONDUIT   1867.45     0  02:09      2.40    0.99    1.00
  YS02001649YS02001757 CONDUIT   2151.93     0  02:09      2.75    1.31    1.00
  YS02001652YS02001649 CONDUIT    913.83     0  02:13      1.16    0.45    1.00
  YS02001655YS02001652 CONDUIT    912.93     0  02:13      1.30    0.44    1.00
  YS02001658YS02001655 CONDUIT    913.31     0  02:13      1.93    0.39    1.00
  YS02001661YS02001658 CONDUIT    912.89     0  02:13      2.37    0.36    1.00
  YS02001664YS02001661 CONDUIT    892.21     0  02:12      2.42    0.28    0.83
  YS02001745YS02001748 CONDUIT    612.87     0  02:11      2.22    0.24    0.94
  YS02001748YS02001751 CONDUIT    553.35     0  02:12      1.73    0.28    1.00
  YS02001751YS02001754 CONDUIT    554.34     0  02:12      1.44    0.27    1.00
  YS02001754YS02001757 CONDUIT    553.57     0  02:12      0.70    0.22    1.00
  YS02001757CaochengTiaoxuchi CONDUIT   3555.11     0  02:12      5.02    1.54    1.00
  YS02001759YS02001757 CONDUIT   1427.38     0  02:11      1.82    1.01    1.00
  YS02001762YS02001759 CONDUIT    811.49     0  02:11      1.03    0.93    1.00
  YS02001765YS02001762 CONDUIT    812.26     0  02:11      1.03    0.76    1.00
  YS02001767YS02001765 CONDUIT    815.51     0  02:11      1.04    1.03    1.00
  YS02001770YS02001767 CONDUIT    817.50     0  02:11      1.04    3.24    1.00
  YS02001774YS02001770 CONDUIT    284.84     0  02:10      0.36    0.18    1.00
  YS02001779YS02001774 CONDUIT    279.98     0  02:10      0.36    0.14    1.00
  YS02001783YS02001784 CONDUIT   1161.80     0  02:12      2.31    1.60    1.00
  YS02001784YS02001785 CONDUIT   1162.87     0  02:12      2.31    2.71    1.00
  YS02001786YS02001788 CONDUIT   1162.75     0  02:12      2.47    2.24    0.89
  YS02001788YS02001790 CONDUIT   1174.58     0  02:12      2.71    0.87    0.84
  YS02001790YS02001791 CONDUIT   1293.12     0  02:12      3.42    1.41    0.71
  YS02001791YS02001793 CONDUIT   1249.64     0  02:12      6.80    0.54    0.42
  YS02001793JiankangQianchi CONDUIT   1274.06     0  02:15      2.54    0.10    0.63
  YS02001882YS02001884 CONDUIT     57.66     0  02:08      0.11    0.07    1.00
  YS02001884YS02001887 CONDUIT     74.78     0  02:07      0.10    0.10    1.00
  YS02001887YS02001890 CONDUIT    755.94     0  02:13      0.96    1.29    1.00
  YS02001890YS02001895 CONDUIT    516.75     0  02:16      0.66    0.24    1.00
  YS02001895YS02001898 CONDUIT    517.00     0  02:16      0.66    0.90    1.00
  YS02001898YS02001901 CONDUIT    517.13     0  02:16      0.66    0.33    1.00
  YS02001901YS02001904 CONDUIT    517.08     0  02:16      0.66    0.80    1.00
  YS02001904YS02001907 CONDUIT    517.56     0  02:16      0.66    0.18    1.00
  YS02001907YS02006553 CONDUIT    798.18     0  02:24      0.89    0.94    1.00
  YS02001910YS02001907 CONDUIT   1250.44     0  02:14      1.59    0.70    1.00
  YS02001915YS02001910 CONDUIT   1250.95     0  02:13      1.59    0.62    1.00
  YS02001918YS02001915 CONDUIT    461.28     0  02:13      0.59    0.25    1.00
  YS02001920YS02001918 CONDUIT    461.11     0  02:14      0.65    0.45    1.00
  YS02001923YS02001920 CONDUIT    457.98     0  02:14      0.72    0.21    1.00
  YS02001926YS02001923 CONDUIT    453.71     0  02:13      0.98    0.65    1.00
  YS02001929YS02001926 CONDUIT    451.48     0  02:13      1.16    0.21    1.00
  YS02006553YS02006556 CONDUIT    797.43     0  02:24      1.02    0.68    1.00
  YS02006556YS02006558 CONDUIT    798.97     0  02:24      1.02    0.63    1.00
  YS02006558YS02006561 CONDUIT   1163.08     0  02:09      4.11    2.57    1.00
  YS02006561YS02001783 CONDUIT   1162.31     0  02:12      2.31    0.60    1.00
  YS02163301YS02001633 CONDUIT    935.86     0  02:08      1.19    0.88    1.00
  YS02163601YS02164001 CONDUIT   1420.52     0  02:08      1.81    1.26    1.00
  YS02164001YS02001641 CONDUIT   1416.24     0  02:08      1.80    1.93    1.00
  YSB1154YSB6556       CONDUIT    413.74     0  02:13      1.08    0.74    1.00
  YSB1171HS02004479    CONDUIT    444.27     0  02:09      0.88    0.30    1.00
  YSB1174YSB1171       CONDUIT    357.45     0  02:13      0.93    0.55    1.00
  YSB6556YSB1171       CONDUIT    414.23     0  02:13      1.08    0.43    1.00
  CC-R1                PUMP       683.00     0  00:00              1.00
  CC-R2                PUMP       683.00     0  00:00              1.00
  CC-S1                PUMP       200.00     0  00:00              1.00
  CC-S2                PUMP       200.00     0  00:00              1.00
  JK-R1                PUMP      1000.00     0  00:00              1.00
  JK-R2                PUMP      1000.00     0  00:00              1.00
  JK-S                 PUMP       300.00     0  00:00              1.00
  XR-1                 PUMP        95.00     0  00:00              1.00
  XR-2                 PUMP        95.00     0  00:00              1.00
  XR-3                 PUMP        95.00     0  00:00              1.00
  XR-4                 PUMP        95.00     0  00:00              1.00
  
  
  ***************************
  Flow Classification Summary
  ***************************
  
  -------------------------------------------------------------------------------------
                      Adjusted    ---------- Fraction of Time in Flow Class ---------- 
                       /Actual         Up    Down  Sub   Sup   Up    Down  Norm  Inlet 
  Conduit               Length    Dry  Dry   Dry   Crit  Crit  Crit  Crit  Ltd   Ctrl  
  -------------------------------------------------------------------------------------
  1                       1.00   0.00  0.00  0.00  0.00  1.00  0.00  0.00  0.33  0.00
  HS02004478WS02006287    1.00   0.12  0.00  0.00  0.55  0.33  0.00  0.00  0.61  0.00
  HS02004479HS02004480    1.00   0.05  0.00  0.00  0.95  0.00  0.00  0.00  0.12  0.00
  HS02004480HS02004478    1.00   0.10  0.00  0.00  0.48  0.00  0.00  0.42  0.00  0.00
  HS02004770HS02004777    1.00   0.00  0.10  0.00  0.90  0.00  0.00  0.00  0.03  0.00
  HS02004777HS02004785    1.00   0.00  0.00  0.00  1.00  0.00  0.00  0.00  0.13  0.00
  HS02004785HS02004788    1.00   0.00  0.00  0.00  1.00  0.00  0.00  0.00  0.00  0.00
  HS02004788HS02004792    1.00   0.00  0.00  0.00  0.99  0.01  0.00  0.00  0.91  0.00
  HS02004792HS02004799    1.00   0.00  0.00  0.00  0.98  0.02  0.00  0.00  0.88  0.00
  HS02004799HS02004480    1.00   0.00  0.05  0.00  0.88  0.00  0.06  0.00  0.00  0.00
  HS02004802HS02004478    1.00   0.10  0.00  0.00  0.89  0.00  0.00  0.00  0.03  0.00
  HS02004807HS02004802    1.00   0.10  0.00  0.00  0.89  0.00  0.00  0.01  0.00  0.00
  HS02004817HS02004807    1.00   0.00  0.10  0.00  0.90  0.00  0.00  0.00  0.01  0.00
  HS02004817HS02004824    1.00   0.00  0.00  0.00  1.00  0.00  0.00  0.00  0.84  0.00
  HS02004824HS02004830    1.00   0.00  0.00  0.00  1.00  0.00  0.00  0.00  0.01  0.00
  HS02004830HS02004837    1.00   0.00  0.00  0.00  1.00  0.00  0.00  0.00  0.90  0.00
  HS02004837HS02004842    1.00   0.00  0.00  0.00  1.00  0.00  0.00  0.00  0.11  0.00
  HS02004842HS02004848    1.00   0.00  0.10  0.00  0.90  0.00  0.00  0.00  0.58  0.00
  HS02004848HS02004852    1.00   0.10  0.00  0.00  0.90  0.00  0.00  0.00  0.70  0.00
  HS02004852HS02004856    1.00   0.10  0.01  0.00  0.89  0.00  0.00  0.00  0.70  0.00
  HS02004856HS02004862    1.00   0.00  0.13  0.00  0.87  0.00  0.00  0.00  0.75  0.00
  HS02004862HS02004870    1.00   0.00  0.00  0.00  1.00  0.00  0.00  0.00  0.04  0.00
  HS02004870HS02004876    1.00   0.00  0.00  0.00  0.99  0.01  0.00  0.00  0.87  0.00
  HS02004876HS02004881    1.00   0.04  0.00  0.00  0.70  0.26  0.00  0.00  0.00  0.00
  HS02004881HS02006253    1.00   0.03  0.04  0.00  0.31  0.05  0.00  0.58  0.12  0.00
  HS02004901HS02004770    1.00   0.10  0.00  0.00  0.90  0.00  0.00  0.00  0.00  0.00
  WS02001211WS02001212    1.00   0.00  0.04  0.00  0.96  0.00  0.00  0.00  0.00  0.00
  WS02001212WS02001213    1.00   0.04  0.00  0.00  0.42  0.00  0.53  0.00  0.00  0.00
  WS02001213WS02003059    1.00   0.00  0.00  0.00  0.99  0.00  0.00  0.00  0.00  0.00
  WS02003059WS02003060    1.00   0.00  0.00  0.00  1.00  0.00  0.00  0.00  0.03  0.00
  WS02003060WS02003069    1.00   0.00  0.00  0.00  0.99  0.01  0.00  0.00  0.58  0.00
  WS02003066WSF200        1.00   0.08  0.00  0.00  0.00  0.92  0.00  0.00  0.71  0.00
  WS02003067WS02003066    1.00   0.07  0.00  0.00  0.92  0.00  0.00  0.00  0.00  0.00
  WS02003069WS02003072    1.00   0.00  0.00  0.00  1.00  0.00  0.00  0.00  0.73  0.00
  WS02003072WS02003073    1.00   0.00  0.00  0.00  0.00  0.00  0.00  1.00  0.00  0.00
  WS02004138WS02004139    1.00   0.00  0.01  0.00  0.96  0.01  0.00  0.02  0.98  0.00
  WS02004139WS02001211    1.00   0.00  0.00  0.00  0.99  0.00  0.00  0.00  0.00  0.00
  WS02004401WS02004402    1.00   0.04  0.00  0.00  0.96  0.00  0.00  0.00  0.00  0.00
  WS02004402WS02004403    1.00   0.04  0.00  0.00  0.95  0.00  0.00  0.00  0.00  0.00
  WS02004403WS02004404    1.00   0.00  0.05  0.00  0.95  0.00  0.00  0.00  0.00  0.00
  WS02004404WS02004405    1.00   0.00  0.00  0.00  1.00  0.00  0.00  0.00  0.00  0.00
  WS02004405WS02004406    1.00   0.00  0.00  0.00  1.00  0.00  0.00  0.00  0.00  0.00
  WS02004406WS02004407    1.00   0.00  0.06  0.00  0.94  0.00  0.00  0.00  0.00  0.00
  WS02004407WS02004409    1.00   0.06  0.00  0.00  0.94  0.00  0.00  0.00  0.85  0.00
  WS02004409WS02004410    1.00   0.06  0.00  0.00  0.94  0.00  0.00  0.00  0.00  0.00
  WS02004410WS02004411    1.00   0.06  0.00  0.00  0.94  0.00  0.00  0.00  0.00  0.00
  WS02004411WS02004412    1.00   0.06  0.00  0.00  0.94  0.00  0.00  0.00  0.00  0.00
  WS02004412WS02004413    1.00   0.06  0.00  0.00  0.94  0.00  0.00  0.00  0.01  0.00
  WS02004413WS02003067    1.00   0.06  0.01  0.00  0.00  0.00  0.93  0.00  0.00  0.00
  WS02006109WS02006110    1.00   0.00  0.01  0.00  0.97  0.00  0.03  0.00  0.00  0.00
  WS02006110WS02006113    1.00   0.01  0.03  0.00  0.96  0.00  0.00  0.00  0.00  0.00
  WS02006111WS02006112    1.00   0.04  0.00  0.00  0.96  0.00  0.00  0.00  0.81  0.00
  WS02006112WS02006115    1.00   0.04  0.00  0.00  0.95  0.00  0.00  0.00  0.00  0.00
  WS02006113WS02006111    1.00   0.04  0.00  0.00  0.25  0.71  0.00  0.00  0.06  0.00
  WS02006115WS02006116    1.00   0.04  0.00  0.00  0.95  0.00  0.00  0.01  0.00  0.00
  WS02006116WS02004401    1.00   0.04  0.00  0.00  0.96  0.00  0.00  0.00  0.00  0.00
  WS02006228WS02006109    1.00   0.00  0.00  0.00  1.00  0.00  0.00  0.00  0.00  0.00
  WS02006229WS02006228    1.00   0.00  0.00  0.00  0.99  0.00  0.00  0.01  0.00  0.00
  WS02006230WS02006229    1.00   0.00  0.00  0.00  0.97  0.00  0.00  0.03  0.00  0.00
  WS02006231WS02006230    1.00   0.00  0.00  0.00  0.46  0.00  0.53  0.00  0.00  0.00
  WS02006232WS02006231    1.00   0.00  0.00  0.00  0.99  0.00  0.00  0.00  0.00  0.00
  WS02006234WS02006232    1.00   0.00  0.00  0.00  1.00  0.00  0.00  0.00  0.23  0.00
  WS02006235WS02006234    1.00   0.00  0.00  0.00  0.73  0.00  0.27  0.00  0.00  0.00
  WS02006238WS02006235    1.00   0.00  0.00  0.00  1.00  0.00  0.00  0.00  0.00  0.00
  WS02006239WS02006238    1.00   0.00  0.00  0.00  1.00  0.00  0.00  0.00  0.44  0.00
  WS02006240WS02006239    1.00   0.00  0.00  0.00  0.61  0.00  0.00  0.39  0.00  0.00
  WS02006242WS02006240    1.00   0.00  0.00  0.00  1.00  0.00  0.00  0.00  0.00  0.00
  WS02006243WS02006242    1.00   0.00  0.00  0.00  0.99  0.00  0.00  0.00  0.73  0.00
  WS02006245WS02006243    1.00   0.00  0.00  0.00  0.80  0.00  0.00  0.20  0.00  0.00
  WS02006247WS02006245    1.00   0.00  0.00  0.00  1.00  0.00  0.00  0.00  0.00  0.00
  WS02006248WS02006247    1.00   0.00  0.00  0.00  1.00  0.00  0.00  0.00  0.68  0.00
[...]
  WS02006284WS02006280    1.00   0.11  0.00  0.00  0.14  0.02  0.00  0.74  0.00  0.00
  WS02006287WS02006284    1.00   0.09  0.03  0.00  0.44  0.44  0.00  0.00  0.67  0.00
  WSF200WS02003060        1.00   0.00  0.08  0.00  0.54  0.39  0.00  0.00  0.69  0.00
  YS02001580YS02001583    1.00   0.28  0.42  0.00  0.30  0.00  0.00  0.00  0.67  0.00
  YS02001583YS02001586    1.00   0.32  0.31  0.00  0.37  0.00  0.00  0.00  0.67  0.00
  YS02001586YS02001590    1.00   0.10  0.00  0.00  0.60  0.03  0.00  0.27  0.35  0.00
  YS02001590YS02001593    1.00   0.10  0.00  0.00  0.14  0.00  0.76  0.00  0.00  0.00
  YS02001593YS02001596    1.00   0.10  0.00  0.00  0.16  0.01  0.00  0.72  0.02  0.00
  YS02001596YS02001600    1.00   0.11  0.00  0.00  0.28  0.04  0.00  0.58  0.05  0.00
  YS02001600YS02001601    1.00   0.10  0.00  0.00  0.89  0.00  0.00  0.00  0.64  0.00
  YS02001601YS02001602    1.00   0.10  0.01  0.00  0.90  0.00  0.00  0.00  0.00  0.00
  YS02001602YS02001605    1.00   0.10  0.00  0.00  0.89  0.00  0.00  0.00  0.00  0.00
  YS02001605YS02001607    1.00   0.11  0.00  0.00  0.89  0.00  0.00  0.00  0.00  0.00
  YS02001607YS02001610    1.00   0.10  0.00  0.00  0.89  0.00  0.00  0.00  0.02  0.00
  YS02001610YS02001613    1.00   0.10  0.00  0.00  0.90  0.00  0.00  0.00  0.01  0.00
  YS02001613YS02001616    1.00   0.10  0.00  0.00  0.90  0.00  0.00  0.00  0.01  0.00
  YS02001616YS02001619    1.00   0.10  0.00  0.00  0.90  0.00  0.00  0.00  0.00  0.00
  YS02001619YS02001622    1.00   0.10  0.00  0.00  0.90  0.00  0.00  0.00  0.35  0.00
  YS02001622YS02001625    1.00   0.10  0.00  0.00  0.90  0.00  0.00  0.00  0.05  0.00
  YS02001625YS02001629    1.00   0.10  0.03  0.00  0.19  0.00  0.67  0.00  0.00  0.00
  YS02001629YS02163301    1.00   0.12  0.01  0.00  0.88  0.00  0.00  0.00  0.00  0.00
  YS02001633YS02163601    1.00   0.00  0.01  0.00  0.99  0.00  0.00  0.00  0.15  0.00
  YS02001641YS02001644    1.00   0.00  0.00  0.00  1.00  0.00  0.00  0.00  0.00  0.00
  YS02001644YS02001647    1.00   0.00  0.13  0.00  0.87  0.00  0.00  0.00  0.00  0.00
  YS02001647YS02001649    1.00   0.00  0.13  0.00  0.42  0.44  0.00  0.00  0.59  0.00
  YS02001649YS02001757    1.00   0.00  0.00  0.00  0.52  0.48  0.00  0.00  0.59  0.00
  YS02001652YS02001649    1.00   0.00  0.00  0.00  0.97  0.03  0.00  0.00  0.78  0.00
  YS02001655YS02001652    1.00   0.00  0.00  0.00  0.22  0.05  0.00  0.74  0.07  0.00
  YS02001658YS02001655    1.00   0.00  0.11  0.00  0.48  0.41  0.00  0.00  0.75  0.00
  YS02001661YS02001658    1.00   0.11  0.00  0.00  0.34  0.55  0.00  0.00  0.73  0.00
  YS02001664YS02001661    1.00   0.10  0.00  0.00  0.71  0.19  0.00  0.00  0.86  0.00
  YS02001745YS02001748    1.00   0.00  0.00  0.00  0.05  0.01  0.00  0.94  0.02  0.00
  YS02001748YS02001751    1.00   0.00  0.00  0.00  0.62  0.38  0.00  0.00  0.81  0.00
  YS02001751YS02001754    1.00   0.00  0.00  0.00  0.13  0.02  0.00  0.85  0.03  0.00
  YS02001754YS02001757    1.00   0.00  0.00  0.00  1.00  0.00  0.00  0.00  0.89  0.00
  YS02001757CaochengTiaoxuchi    1.00   0.00  0.00  0.00  0.90  0.10  0.00  0.00  0.89  0.00
  YS02001759YS02001757    1.00   0.00  0.00  0.00  1.00  0.00  0.00  0.00  0.63  0.00
  YS02001762YS02001759    1.00   0.00  0.00  0.00  1.00  0.00  0.00  0.00  0.05  0.00
  YS02001765YS02001762    1.00   0.00  0.00  0.00  1.00  0.00  0.00  0.00  0.76  0.00
  YS02001767YS02001765    1.00   0.00  0.00  0.00  1.00  0.00  0.00  0.00  0.00  0.00
  YS02001770YS02001767    1.00   0.00  0.00  0.00  1.00  0.00  0.00  0.00  0.00  0.00
  YS02001774YS02001770    1.00   0.00  0.10  0.00  0.74  0.00  0.16  0.00  0.04  0.00
  YS02001779YS02001774    1.00   0.00  0.00  0.00  1.00  0.00  0.00  0.00  0.82  0.00
  YS02001783YS02001784    1.00   0.00  0.14  0.00  0.86  0.00  0.00  0.00  0.58  0.00
  YS02001784YS02001785    1.00   0.00  0.00  0.00  1.00  0.00  0.00  0.00  0.18  0.00
  YS02001786YS02001788    1.00   0.00  0.00  0.00  0.62  0.38  0.00  0.00  0.00  0.00
  YS02001788YS02001790    1.00   0.00  0.00  0.00  0.17  0.83  0.00  0.00  0.83  0.00
  YS02001790YS02001791    1.00   0.00  0.00  0.00  0.02  0.98  0.00  0.00  0.15  0.00
  YS02001791YS02001793    1.00   0.00  0.00  0.00  0.00  1.00  0.00  0.00  0.00  0.00
  YS02001793JiankangQianchi    1.00   0.00  0.00  0.00  0.96  0.04  0.00  0.00  0.99  0.00
  YS02001882YS02001884    1.00   0.11  0.01  0.00  0.88  0.00  0.00  0.00  0.00  0.00
  YS02001884YS02001887    1.00   0.07  0.03  0.00  0.91  0.00  0.00  0.00  0.00  0.00
  YS02001887YS02001890    1.00   0.00  0.00  0.00  0.95  0.00  0.05  0.00  0.00  0.00
  YS02001890YS02001895    1.00   0.00  0.12  0.00  0.88  0.00  0.00  0.00  0.00  0.00
  YS02001895YS02001898    1.00   0.12  0.00  0.00  0.85  0.00  0.02  0.00  0.00  0.00
  YS02001898YS02001901    1.00   0.12  0.00  0.00  0.87  0.00  0.00  0.00  0.01  0.00
  YS02001901YS02001904    1.00   0.12  0.00  0.00  0.88  0.00  0.00  0.00  0.00  0.00
  YS02001904YS02001907    1.00   0.00  0.12  0.00  0.88  0.00  0.00  0.00  0.00  0.00
  YS02001907YS02006553    1.00   0.00  0.04  0.00  0.96  0.00  0.00  0.00  0.00  0.00
  YS02001910YS02001907    1.00   0.00  0.00  0.00  0.95  0.00  0.00  0.04  0.12  0.00
  YS02001915YS02001910    1.00   0.00  0.00  0.00  0.96  0.04  0.00  0.00  0.17  0.00
  YS02001918YS02001915    1.00   0.00  0.00  0.00  0.96  0.04  0.00  0.00  0.78  0.00
  YS02001920YS02001918    1.00   0.00  0.00  0.00  1.00  0.00  0.00  0.00  0.00  0.00
  YS02001923YS02001920    1.00   0.00  0.00  0.00  1.00  0.00  0.00  0.00  0.94  0.00
  YS02001926YS02001923    1.00   0.00  0.07  0.00  0.06  0.00  0.86  0.00  0.00  0.00
  YS02001929YS02001926    1.00   0.00  0.10  0.00  0.90  0.00  0.00  0.00  0.84  0.00
  YS02006553YS02006556    1.00   0.02  0.00  0.00  0.98  0.00  0.00  0.00  0.03  0.00
  YS02006556YS02006558    1.00   0.00  0.00  0.00  1.00  0.00  0.00  0.00  0.00  0.00
  YS02006558YS02006561    1.00   0.14  0.00  0.00  0.06  0.80  0.00  0.00  0.17  0.00
  YS02006561YS02001783    1.00   0.14  0.00  0.00  0.10  0.76  0.00  0.00  0.71  0.00
  YS02163301YS02001633    1.00   0.00  0.12  0.00  0.88  0.00  0.00  0.00  0.00  0.00
  YS02163601YS02164001    1.00   0.00  0.08  0.00  0.92  0.00  0.00  0.00  0.00  0.00
  YS02164001YS02001641    1.00   0.01  0.07  0.00  0.92  0.00  0.00  0.00  0.06  0.00
  YSB1154YSB6556          1.00   0.10  0.00  0.00  0.90  0.00  0.00  0.00  0.02  0.00
  YSB1171HS02004479       1.00   0.06  0.00  0.00  0.94  0.00  0.00  0.01  0.10  0.00
  YSB1174YSB1171          1.00   0.06  0.02  0.00  0.92  0.00  0.00  0.00  0.00  0.00
  YSB6556YSB1171          1.00   0.06  0.04  0.00  0.90  0.00  0.00  0.00  0.00  0.00
  
  
  *************************
  Conduit Surcharge Summary
  *************************
  
  ----------------------------------------------------------------------------
                                                           Hours        Hours 
                         --------- Hours Full --------   Above Full   Capacity
  Conduit                Both Ends  Upstream  Dnstream   Normal Flow   Limited
  ----------------------------------------------------------------------------
  HS02004478WS02006287        0.40      0.40      0.55      0.01         0.01
  HS02004479HS02004480        0.56      0.56      0.58      0.01         0.01
  HS02004480HS02004478        0.50      0.55      0.50      1.51         0.50
  HS02004770HS02004777        0.47      0.47      0.47      0.08         0.05
  HS02004777HS02004785        0.43      0.43      0.47      0.01         0.01
  HS02004785HS02004788        0.42      0.43      0.42      1.22         0.37
  HS02004788HS02004792        0.42      0.42      0.52      0.01         0.01
  HS02004792HS02004799        0.52      0.52      0.63      0.01         0.01
  HS02004799HS02004480        0.55      0.55      0.63      0.71         0.01
  HS02004802HS02004478        0.50      0.50      0.56      0.08         0.01
  HS02004807HS02004802        0.53      0.53      0.55      0.20         0.20
  HS02004817HS02004807        0.53      0.53      1.02      0.01         0.01
  HS02004817HS02004824        0.42      0.42      1.02      0.01         0.01
  HS02004824HS02004830        0.39      0.39      0.42      0.01         0.01
  HS02004830HS02004837        0.36      0.36      0.39      0.01         0.01
  HS02004837HS02004842        0.36      0.36      0.48      0.01         0.01
  HS02004842HS02004848        0.32      0.32      0.48      0.01         0.01
  HS02004848HS02004852        0.32      0.32      0.35      0.03         0.01
  HS02004852HS02004856        0.34      0.35      0.36      0.02         0.01
  HS02004856HS02004862        0.33      0.33      0.36      0.01         0.01
  HS02004862HS02004870        0.36      0.36      0.38      0.18         0.16
  HS02004870HS02004876        0.38      0.38      0.44      0.01         0.01
  HS02004876HS02004881        0.42      0.44      0.42      1.25         0.42
  HS02004881HS02006253        0.42      0.42      1.15      0.01         0.01
  HS02004901HS02004770        0.47      0.47      0.48      0.01         0.01
  WS02003072WS02003073        0.01      0.01      0.01      1.87         0.01
  WS02004401WS02004402        1.27      1.27      1.29      1.15         1.15
  WS02004402WS02004403        1.29      1.29      1.29      1.27         1.26
  WS02004403WS02004404        1.29      1.29      1.40      0.01         0.02
  WS02004404WS02004405        1.38      1.40      1.38      2.41         1.38
  WS02004405WS02004406        1.35      1.38      1.35      1.50         1.35
  WS02004406WS02004407        0.01      0.01      1.35      0.01         0.01
  WS02004407WS02004409        0.01      0.01      0.80      0.01         0.01
  WS02004409WS02004410        0.79      0.80      0.79      1.21         0.79
  WS02004410WS02004411        0.73      0.79      0.73      1.24         0.73
  WS02004411WS02004412        0.65      0.73      0.65      1.27         0.65
  WS02004412WS02004413        0.65      0.65      1.07      0.01         0.01
  WS02004413WS02003067        0.01      0.01      1.07      0.01         0.01
  WS02006109WS02006110        1.47      1.47      1.67      1.47         0.01
  WS02006110WS02006113        1.02      1.02      1.65      0.24         0.01
  WS02006111WS02006112        1.00      1.00      1.79      0.01         0.01
  WS02006112WS02006115        1.22      1.22      1.52      0.01         0.01
  WS02006113WS02006111        1.01      1.02      1.01      1.11         1.01
  WS02006115WS02006116        1.22      1.22      1.23      1.21         1.20
  WS02006116WS02004401        1.27      1.27      1.27      1.25         1.24
  WS02006228WS02006109        1.64      1.67      1.64      1.89         1.64
  WS02006229WS02006228        1.63      1.64      1.63      1.77         1.63
  WS02006230WS02006229        1.69      1.70      1.69      2.18         0.73
  WS02006231WS02006230        1.37      1.37      1.41      1.81         0.86
  WS02006232WS02006231        1.40      1.40      1.47      0.01         0.12
  WS02006234WS02006232        1.40      1.40      1.47      0.01         0.01
  WS02006235WS02006234        1.38      1.38      1.40      1.58         0.82
  WS02006238WS02006235        1.40      1.40      1.43      0.01         0.28
  WS02006239WS02006238        1.39      1.39      1.40      0.69         0.02
  WS02006240WS02006239        1.37      1.37      1.37      0.68         0.02
  WS02006242WS02006240        1.36      1.36      1.38      1.01         0.69
  WS02006243WS02006242        1.34      1.34      1.37      0.01         0.01
  WS02006245WS02006243        1.28      1.29      1.32      0.04         0.01
  WS02006247WS02006245        1.27      1.29      1.27      1.44         0.40
  WS02006248WS02006247        1.25      1.25      1.28      0.01         0.01
  WS02006249WS02006248        1.24      1.24      1.25      0.50         0.01
  WS02006251WS02006249        1.24      1.24      1.25      1.19         1.13
  WS02006252WS02006251        1.22      1.22      1.27      0.75         0.01
  WS02006253WS02006251        1.23      1.24      1.25      0.66         0.01
  WS02006256WS02006235        1.96      1.96      5.68      0.02         0.01
  WS02006280WS02006229        0.65      0.65      0.77      0.01         0.01
  WS02006284WS02006280        0.57      0.57      0.64      0.01         0.01
  WS02006287WS02006284        0.49      0.49      0.58      0.23         0.22
  YS02001580YS02001583        0.45      0.45      0.47      0.01         0.01
  YS02001583YS02001586        0.45      0.45      0.53      0.01         0.01
  YS02001586YS02001590        0.54      0.54      0.59      0.01         0.01
  YS02001590YS02001593        0.59      0.59      0.61      0.63         0.01
  YS02001593YS02001596        0.60      0.60      0.69      0.01         0.01
  YS02001596YS02001600        0.73      0.73      0.81      0.01         0.01
  YS02001600YS02001601        0.87      0.87      1.16      0.01         0.01
  YS02001601YS02001602        1.04      1.04      1.20      0.83         0.01
  YS02001602YS02001605        0.98      0.98      1.04      1.99         0.01
  YS02001605YS02001607        0.94      0.98      0.94      1.11         0.94
  YS02001607YS02001610        0.53      0.53      0.56      0.01         0.01
  YS02001610YS02001613        0.53      0.53      0.56      0.01         0.01
  YS02001613YS02001616        0.49      0.49      0.53      0.01         0.01
  YS02001616YS02001619        0.48      0.48      0.49      0.01         0.01
  YS02001619YS02001622        0.47      0.48      0.47      0.63         0.45
  YS02001622YS02001625        0.47      0.47      0.63      0.01         0.01
  YS02001625YS02001629        0.41      0.41      0.63      0.01         0.01
  YS02001629YS02163301        0.61      0.61      0.62      0.27         0.26
  YS02001633YS02163601        0.64      0.64      0.66      0.39         0.39
  YS02001641YS02001644        0.49      0.54      0.49      1.24         0.49
  YS02001644YS02001647        0.32      0.32      0.49      0.05         0.01
  YS02001647YS02001649        0.32      0.32      0.36      0.01         0.01
  YS02001649YS02001757        0.35      0.36      0.36      0.35         0.29
  YS02001652YS02001649        0.26      0.26      0.36      0.01         0.01
  YS02001655YS02001652        0.17      0.17      0.25      0.01         0.01
  YS02001658YS02001655        0.10      0.10      0.17      0.01         0.01
  YS02001661YS02001658        0.01      0.01      0.10      0.01         0.01
  YS02001664YS02001661        0.01      0.01      0.03      0.01         0.01
  YS02001745YS02001748        0.01      0.01      0.04      0.01         0.01
  YS02001748YS02001751        0.08      0.08      0.12      0.01         0.01
  YS02001751YS02001754        0.12      0.12      0.17      0.01         0.01
  YS02001754YS02001757        0.18      0.18      0.36      0.01         0.01
  YS02001757CaochengTiaoxuchi        0.15      0.36      0.51      0.35         0.10
  YS02001759YS02001757        0.31      0.31      0.36      0.01         0.04
  YS02001762YS02001759        0.29      0.29      0.31      0.01         0.03
  YS02001765YS02001762        0.26      0.26      0.29      0.01         0.01
  YS02001767YS02001765        0.25      0.25      0.26      0.01         0.05
  YS02001770YS02001767        0.25      0.25      0.25      0.44         0.24
  YS02001774YS02001770        0.24      0.24      0.28      0.01         0.01
  YS02001779YS02001774        0.18      0.18      0.28      0.01         0.01
  YS02001783YS02001784        0.36      0.38      0.36      0.51         0.36
  YS02001784YS02001785        0.27      0.36      0.27      0.68         0.27
  YS02001786YS02001788        0.01      0.27      0.01      0.59         0.01
  YS02001790YS02001791        0.01      0.01      0.01      0.35         0.01
  YS02001793JiankangQianchi        0.01      0.01      7.70      0.01         0.01
  YS02001882YS02001884        0.34      0.34      0.35      0.01         0.01
  YS02001884YS02001887        0.37      0.37      0.38      0.01         0.01
  YS02001887YS02001890        0.39      0.39      0.40      0.08         0.01
  YS02001890YS02001895        0.33      0.33      0.41      0.01         0.01
  YS02001895YS02001898        0.33      0.33      0.33      0.01         0.01
  YS02001898YS02001901        0.33      0.33      0.37      0.01         0.01
  YS02001901YS02001904        0.36      0.36      0.37      0.01         0.01
  YS02001904YS02001907        0.36      0.36      0.57      0.01         0.01
  YS02001907YS02006553        0.69      0.69      0.75      0.01         0.01
  YS02001910YS02001907        0.41      0.41      0.57      0.01         0.01
  YS02001915YS02001910        0.34      0.34      0.41      0.01         0.01
  YS02001918YS02001915        0.27      0.27      0.34      0.01         0.01
  YS02001920YS02001918        0.27      0.27      0.28      0.01         0.01
  YS02001923YS02001920        0.23      0.23      0.28      0.01         0.01
  YS02001926YS02001923        0.03      0.03      0.04      0.01         0.01
  YS02001929YS02001926        0.01      0.01      0.04      0.01         0.01
  YS02006553YS02006556        0.49      0.49      0.58      0.01         0.01
  YS02006556YS02006558        0.53      0.53      0.59      0.01         0.01
  YS02006558YS02006561        0.30      0.48      0.30      0.65         0.30
  YS02006561YS02001783        0.23      0.23      0.38      0.01         0.01
  YS02163301YS02001633        0.62      0.62      0.66      0.01         0.01
  YS02163601YS02164001        0.56      0.56      0.66      0.23         0.01
  YS02164001YS02001641        0.54      0.56      0.54      0.60         0.44
  YSB1154YSB6556              0.61      0.61      0.72      0.01         0.01
  YSB1171HS02004479           0.51      0.51      0.73      0.01         0.01
  YSB1174YSB1171              0.66      0.66      0.94      0.01         0.01
  YSB6556YSB1171              0.61      0.61      1.10      0.01         0.01
  
  
  ***************
  Pumping Summary
  ***************
  
  ---------------------------------------------------------------------------------------------------------
                                                  Min       Avg       Max     Total     Power    % Time Off
                        Percent   Number of      Flow      Flow      Flow    Volume     Usage    Pump Curve
  Pump                 Utilized   Start-Ups       LPS       LPS       LPS  10^6 ltr     Kw-hr    Low   High
  ---------------------------------------------------------------------------------------------------------
  CC-R1                   20.08          49      0.00    683.00    683.00     3.950     67.83    0.0   68.1
  CC-R2                   20.08          49      0.00    683.00    683.00     3.950     67.83    0.0   68.1
  CC-S1                   11.44           2      0.00    200.00    200.00     0.659      5.03    0.0    0.0
  CC-S2                   20.08          49      0.00    200.00    200.00     1.157      8.85    0.0    0.0
  JK-R1                    5.42          50      0.00   1000.00   1000.00     1.561     12.41    0.0    0.0
  JK-R2                    5.42          50      0.00   1000.00   1000.00     1.561     12.41    0.0    0.0
  JK-S                     2.36           3      0.00    300.00    300.00     0.204      3.44    0.0    0.0
  XR-1                    97.91           2      0.00     95.00     95.00     2.679      9.61    0.0    0.0
  XR-2                    93.94           2      0.00     95.00     95.00     2.570      8.77    0.0    0.0
  XR-3                     0.00           1      0.00     95.00     95.00     0.000      0.00    0.0    0.0
  XR-4                     0.00           1      0.00     95.00     95.00     0.000      0.00    0.0    0.0
  

  Analysis begun on:  Tue Jun 20 19:22:05 2023
  Analysis ended on:  Tue Jun 20 19:22:15 2023
  Total elapsed time: 00:00:10