
  OWA STORM WATER MANAGEMENT MODEL - VERSION v5.1.14 (OWA 2022-07-31)
  --------------------------------------------------------------

  WARNING 04: minimum elevation drop used for Conduit WS02004404WS02004405
  WARNING 03: negative offset ignored for Link YS02001904YS02001907
  
  *********************************************************
  NOTE: The summary statistics displayed in this report are
  based on results found at every computational time step,  
  not just on results from each reporting time step.
  *********************************************************
  
  ****************
  Analysis Options
  ****************
  Flow Units ............... LPS
  Process Models:
    Rainfall/Runoff ........ YES
    RDII ................... NO
    Snowmelt ............... NO
    Groundwater ............ NO
    Flow Routing ........... YES
    Ponding Allowed ........ NO
    Water Quality .......... NO
  Infiltration Method ...... HORTON
  Flow Routing Method ...... DYNWAVE
  Surcharge Method ......... EXTRAN
  Starting Date ............ 08/28/2015 08:00:00
  Ending Date .............. 08/28/2015 16:00:00
  Antecedent Dry Days ...... 8.0
  Report Time Step ......... 00:01:00
  Wet Time Step ............ 00:01:00
  Dry Time Step ............ 00:01:00
  Routing Time Step ........ 30.00 sec
  Variable Time Step ....... YES
  Maximum Trials ........... 8
  Number of Threads ........ 1
  Head Tolerance ........... 0.001500 m
  
  
  **************************        Volume         Depth
  Runoff Quantity Continuity     hectare-m            mm
  **************************     ---------       -------
  Initial LID Storage ......         0.072         1.184
  Total Precipitation ......         1.568        25.887
  Evaporation Loss .........         0.000         0.000
  Infiltration Loss ........         0.175         2.893
  Surface Runoff ...........         1.080        17.834
  Final Storage ............         0.385         6.360
  Continuity Error (%) .....        -0.059
  
  
  **************************        Volume        Volume
  Flow Routing Continuity        hectare-m      10^6 ltr
  **************************     ---------     ---------
  Dry Weather Inflow .......         0.630         6.296
  Wet Weather Inflow .......         1.080        10.804
  Groundwater Inflow .......         0.000         0.000
  RDII Inflow ..............         0.000         0.000
  External Inflow ..........         0.105         1.045
  External Outflow .........         1.495        14.954
  Flooding Loss ............         0.312         3.117
  Evaporation Loss .........         0.000         0.000
  Exfiltration Loss ........         0.000         0.000
  Initial Stored Volume ....         0.303         3.031
  Final Stored Volume ......         0.319         3.195
  Continuity Error (%) .....        -0.425
  
  
  *************************
  Highest Continuity Errors
  *************************
  Node YS02001884 (5.93%)
  Node YS02001583 (-4.96%)
  Node HS02004842 (4.09%)
  Node YS02001774 (3.59%)
  Node WS02006256 (3.46%)
  
  
  ***************************
  Time-Step Critical Elements
  ***************************
  Link WS02006280WS02006229 (65.27%)
  Link WS02006238WS02006235 (12.46%)
  Link WS02004404WS02004405 (5.24%)
  Link WS02003066WSF200 (3.45%)
  Link WS02006252WS02006251 (1.95%)
  
  
  ********************************
  Highest Flow Instability Indexes
  ********************************
  Link WS02006113WS02006111 (24)
  Link WS02006256WS02006235 (18)
  Link WS02004404WS02004405 (12)
  Link WS02006238WS02006235 (12)
  Link WS02006229WS02006228 (12)
  
  
  *************************
  Routing Time Step Summary
  *************************
  Minimum Time Step           :     0.00 sec
  Average Time Step           :     2.93 sec
  Maximum Time Step           :     6.46 sec
  Percent in Steady State     :    -0.00
  Average Iterations per Step :     3.24
  Percent Not Converging      :    13.03
  
  
  ***************************
  Subcatchment Runoff Summary
  ***************************
  
  ------------------------------------------------------------------------------------------------------------------------------
                            Total      Total      Total      Total     Imperv       Perv      Total       Total     Peak  Runoff
                           Precip      Runon       Evap      Infil     Runoff     Runoff     Runoff      Runoff   Runoff   Coeff
  Subcatchment                 mm         mm         mm         mm         mm         mm         mm    10^6 ltr      LPS
  ------------------------------------------------------------------------------------------------------------------------------
  sub0                      25.89       0.00       0.00       0.86      22.82       0.95      23.77        0.02    15.96   0.918
  sub1                      25.89       0.00       0.00       1.31      19.53       1.24      20.77        0.14    92.34   0.802
  sub10                     25.89       0.00       0.00       0.83      18.31       0.85      19.16        0.21   148.61   0.740
  sub11                     25.89       0.00       0.00       0.76      17.03       0.81      17.83        0.21   157.70   0.689
  sub12                     25.89       0.00       0.00       1.33      17.31       1.40      18.72        0.16   134.98   0.723
  sub14                     25.89       0.00       0.00       0.83      16.12       0.86      16.98        0.16   120.75   0.656
  sub15                     25.89       0.00       0.00       3.80      14.49       2.76      17.25        0.30   196.35   0.667
  sub16                     25.89       0.00       0.00       4.03      14.14       3.32      17.46        0.18   136.28   0.675
  sub17                     25.89       0.00       0.00       4.32      15.61       3.43      19.04        0.16   117.63   0.736
  sub2                      25.89       0.00       0.00       5.84      14.27       3.03      17.30        0.16    89.98   0.668
  sub22                     25.89       0.00       0.00       6.67      13.53       4.11      17.64        1.11   703.63   0.681
  sub23                     25.89       0.00       0.00       5.06      13.93       3.59      17.52        0.84   565.25   0.677
  sub3                      25.89       0.00       0.00       6.12      14.11       2.67      16.78        0.38   189.59   0.648
  sub4                      25.89       0.00       0.00       1.44      19.17       1.08      20.25        0.42   210.42   0.782
  sub5                      25.89       0.00       0.00       0.74      18.90       0.76      19.66        0.22   152.26   0.760
  sub60                     25.89       0.00       0.00       1.19      16.65       1.21      17.86        0.23   180.82   0.690
  sub61                     25.89       0.00       0.00       1.83      16.64       1.77      18.41        0.34   259.78   0.711
  sub62                     25.89       0.00       0.00       0.81      17.73       0.82      18.55        0.51   354.23   0.717
  sub63                     25.89       0.00       0.00       3.38      14.25       2.77      17.02        0.39   279.77   0.657
  sub64                     25.89       0.00       0.00       1.62      16.21       1.41      17.62        0.42   278.35   0.681
  sub65                     25.89       0.00       0.00       1.49      17.49       1.28      18.77        0.52   323.44   0.725
  sub66                     25.89       0.00       0.00       3.87      13.75       2.09      15.83        0.74   391.99   0.612
  sub67                     25.89       0.00       0.00       0.80      18.19       0.87      19.06        0.35   287.12   0.736
  sub68                     25.89       0.00       0.00       1.41      16.06       1.36      17.41        0.48   352.50   0.673
  sub69                     25.89       0.00       0.00       1.24      17.36       1.83      19.20        0.71   425.25   0.742
  sub7                      25.89       0.00       0.00       0.88      17.28       0.93      18.21        0.06    47.77   0.704
  sub70                     25.89       0.00       0.00       4.10      13.88       3.11      16.99        0.49   228.19   0.656
  sub71                     25.89       0.00       0.00       0.75      16.10       0.73      16.83        0.44   286.86   0.650
  sub72                     25.89       0.00       0.00       0.71      17.37       0.67      18.04        0.25   144.46   0.697
  sub8                      25.89       0.00       0.00       0.86      16.79       0.90      17.69        0.11    85.04   0.683
  sub9                      25.89       0.00       0.00       0.83      16.28       0.87      17.15        0.08    61.92   0.662
  

  ***********************
  LID Performance Summary
  ***********************

  --------------------------------------------------------------------------------------------------------------------
                                         Total      Evap     Infil   Surface    Drain    Initial     Final  Continuity
                                        Inflow      Loss      Loss   Outflow   Outflow   Storage   Storage       Error
  Subcatchment      LID Control             mm        mm        mm        mm        mm        mm        mm           %
  --------------------------------------------------------------------------------------------------------------------
  sub1              GreenRoof            25.89      0.00      0.00      0.00      0.00      7.05     33.00       -0.20
  sub10             GreenRoof            25.89      0.00      0.00      0.00      0.00      7.05     33.00       -0.20
  sub11             GreenRoof            25.89      0.00      0.00      0.00      0.00      7.05     33.00       -0.20
  sub12             GreenRoof            25.89      0.00      0.00      0.00      0.00      7.05     33.00       -0.20
  sub14             GreenRoof            25.89      0.00      0.00      0.00      0.00      7.05     33.00       -0.20
  sub15             GreenRoof            25.89      0.00      0.00      0.00      0.00      7.05     33.00       -0.20
  sub16             GreenRoof            25.89      0.00      0.00      0.00      0.00      7.05     33.00       -0.20
  sub17             GreenRoof            25.89      0.00      0.00      0.00      0.00      7.05     33.00       -0.20
  sub2              GreenRoof            25.89      0.00      0.00      0.00      0.00      7.05     33.00       -0.20
  sub22             GreenRoof            25.89      0.00      0.00      0.00      0.00      7.05     33.00       -0.20
  sub23             GreenRoof            25.89      0.00      0.00      0.00      0.00      7.05     33.00       -0.20
  sub3              GreenRoof            25.89      0.00      0.00      0.00      0.00      7.05     33.00       -0.20
  sub4              GreenRoof            25.89      0.00      0.00      0.00      0.00      7.05     33.00       -0.20
  sub5              GreenRoof            25.89      0.00      0.00      0.00      0.00      7.05     33.00       -0.20
  sub60             GreenRoof            25.89      0.00      0.00      0.00      0.00      7.05     33.00       -0.20
  sub61             GreenRoof            25.89      0.00      0.00      0.00      0.00      7.05     33.00       -0.20
  sub62             GreenRoof            25.89      0.00      0.00      0.00      0.00      7.05     33.00       -0.20
  sub63             GreenRoof            25.89      0.00      0.00      0.00      0.00      7.05     33.00       -0.20
  sub64             GreenRoof            25.89      0.00      0.00      0.00      0.00      7.05     33.00       -0.20
  sub65             GreenRoof            25.89      0.00      0.00      0.00      0.00      7.05     33.00       -0.20
  sub66             GreenRoof            25.89      0.00      0.00      0.00      0.00      7.05     33.00       -0.20
  sub67             GreenRoof            25.89      0.00      0.00      0.00      0.00      7.05     33.00       -0.20
  sub68             GreenRoof            25.89      0.00      0.00      0.00      0.00      7.05     33.00       -0.20
  sub69             GreenRoof            25.89      0.00      0.00      0.00      0.00      7.05     33.00       -0.20
  sub7              GreenRoof            25.89      0.00      0.00      0.00      0.00      7.05     33.00       -0.20
  sub70             GreenRoof            25.89      0.00      0.00      0.00      0.00      7.05     33.00       -0.20
  sub71             GreenRoof            25.89      0.00      0.00      0.00      0.00      7.05     33.00       -0.20
  sub72             GreenRoof            25.89      0.00      0.00      0.00      0.00      7.05     33.00       -0.20
  sub8              GreenRoof            25.89      0.00      0.00      0.00      0.00      7.05     33.00       -0.20
  sub9              GreenRoof            25.89      0.00      0.00      0.00      0.00      7.05     33.00       -0.20
  
  ******************
  Node Depth Summary
  ******************
  
  ---------------------------------------------------------------------------------
                                 Average  Maximum  Maximum  Time of Max    Reported
                                   Depth    Depth      HGL   Occurrence   Max Depth
  Node                 Type       Meters   Meters   Meters  days hr:min      Meters
  ---------------------------------------------------------------------------------
  HS02004478           JUNCTION     0.13     1.25    10.48     0  02:26        0.91
  HS02004479           JUNCTION     0.20     1.55    10.75     0  02:26        1.55
  HS02004480           JUNCTION     0.17     1.39    10.64     0  02:26        1.39
  HS02004770           JUNCTION     0.18     1.42    11.25     0  02:25        1.42
  HS02004777           JUNCTION     0.21     1.48    11.28     0  02:25        1.42
  HS02004785           JUNCTION     0.11     1.42    11.32     0  02:25        1.35
  HS02004788           JUNCTION     0.07     1.36    11.26     0  02:25        1.33
  HS02004792           JUNCTION     0.11     1.60    11.12     0  02:26        1.60
  HS02004799           JUNCTION     0.22     1.64    10.85     0  02:26        1.64
  HS02004802           JUNCTION     0.22     1.32    10.45     0  02:26        1.01
  HS02004807           JUNCTION     0.19     1.20    10.37     0  02:26        0.98
  HS02004817           JUNCTION     0.49     1.48    10.33     0  02:26        1.30
  HS02004824           JUNCTION     0.07     0.94    10.34     0  02:26        0.77
  HS02004830           JUNCTION     0.08     0.76    10.23     0  02:27        0.70
  HS02004837           JUNCTION     0.06     0.62    10.20     0  02:27        0.59
  HS02004842           JUNCTION     0.35     0.91    10.18     0  02:27        0.88
  HS02004848           JUNCTION     0.04     0.52    10.12     0  02:27        0.51
  HS02004852           JUNCTION     0.04     0.54    10.05     0  02:28        0.54
  HS02004856           JUNCTION     0.10     0.57    10.00     0  02:28        0.55
  HS02004862           JUNCTION     0.05     0.52     9.90     0  02:28        0.48
  HS02004870           JUNCTION     0.05     0.49     9.78     0  02:31        0.48
  HS02004876           JUNCTION     0.10     1.17    10.20     0  02:30        0.74
  HS02004881           JUNCTION     0.05     0.70     9.73     0  02:32        0.69
  HS02004901           JUNCTION     0.19     1.42    11.24     0  02:25        1.42
  WS02001211           JUNCTION     0.62     0.79     5.62     0  02:30        0.79
  WS02001212           JUNCTION     0.36     0.55     5.61     0  02:31        0.55
  WS02001213           JUNCTION     0.56     0.84     5.60     0  02:31        0.84
  WS02003059           JUNCTION     0.62     0.91     5.60     0  02:30        0.91
  WS02003060           JUNCTION     0.34     0.66     5.59     0  02:30        0.65
  WS02003066           JUNCTION     0.20     0.44     5.99     0  02:27        0.44
  WS02003067           JUNCTION     0.49     0.87     6.19     0  02:26        0.87
  WS02003069           JUNCTION     0.38     0.74     5.33     0  02:31        0.74
  WS02003072           JUNCTION     0.44     0.78     5.15     0  02:31        0.78
  WS02003073           JUNCTION     0.26     0.49     4.56     0  02:32        0.49
  WS02004138           JUNCTION     0.13     0.14     7.39     0  00:30        0.14
  WS02004139           JUNCTION     0.55     0.72     5.63     0  02:30        0.72
  WS02004401           JUNCTION     0.64     1.79     7.79     0  02:26        1.79
  WS02004402           JUNCTION     0.67     1.73     7.69     0  02:26        1.73
  WS02004403           JUNCTION     0.68     1.62     7.55     0  02:26        1.62
  WS02004404           JUNCTION     0.75     1.63     7.48     0  02:26        1.61
  WS02004405           JUNCTION     0.74     1.59     7.44     0  02:26        1.57
  WS02004406           JUNCTION     0.74     1.46     7.29     0  02:26        1.44
  WS02004407           JUNCTION     0.20     0.77     7.09     0  02:26        0.77
  WS02004409           JUNCTION     0.42     1.28     7.05     0  02:26        1.28
  WS02004410           JUNCTION     0.44     1.21     6.93     0  02:26        1.20
  WS02004411           JUNCTION     0.45     1.14     6.82     0  02:26        1.14
  WS02004412           JUNCTION     0.47     1.06     6.70     0  02:26        1.06
  WS02004413           JUNCTION     0.61     1.12     6.59     0  02:26        1.12
  WS02006109           JUNCTION     0.78     2.64     9.26     0  02:26        2.60
  WS02006110           JUNCTION     0.75     2.33     8.92     0  02:26        2.30
  WS02006111           JUNCTION     0.29     1.63     8.34     0  02:26        1.63
  WS02006112           JUNCTION     0.83     2.26     8.15     0  02:26        2.26
  WS02006113           JUNCTION     0.36     1.74     8.63     0  02:26        1.71
  WS02006115           JUNCTION     0.55     1.88     8.02     0  02:26        1.88
  WS02006116           JUNCTION     0.62     1.88     7.92     0  02:26        1.88
  WS02006228           JUNCTION     0.80     2.95     9.60     0  02:26        2.88
  WS02006229           JUNCTION     0.79     3.10     9.79     0  02:26        3.00
  WS02006230           JUNCTION     0.74     2.65     9.39     0  02:23        2.65
  WS02006231           JUNCTION     0.48     2.19     9.31     0  02:27        2.19
  WS02006232           JUNCTION     0.57     2.18     9.22     0  02:23        2.18
  WS02006234           JUNCTION     0.46     1.96     9.12     0  02:21        1.96
  WS02006235           JUNCTION     0.47     2.00     9.16     0  02:40        1.92
  WS02006238           JUNCTION     0.50     2.03     9.17     0  02:40        1.93
  WS02006239           JUNCTION     0.44     1.88     9.09     0  02:40        1.83
  WS02006240           JUNCTION     0.41     1.72     9.02     0  02:16        1.66
  WS02006242           JUNCTION     0.44     1.55     8.82     0  00:05        1.55
  WS02006243           JUNCTION     0.35     1.48     8.90     0  02:16        1.42
  WS02006245           JUNCTION     0.34     1.56     9.04     0  02:16        1.34
  WS02006247           JUNCTION     0.35     1.47     8.97     0  02:16        1.27
  WS02006248           JUNCTION     0.31     1.10     8.69     0  00:05        1.10
  WS02006249           JUNCTION     0.33     1.09     8.69     0  00:05        1.09
  WS02006251           JUNCTION     0.36     2.21     9.88     0  02:50        1.88
  WS02006252           JUNCTION     0.21     1.50     9.74     0  00:00        1.50
  WS02006253           JUNCTION     0.41     3.46    11.10     0  02:50        2.07
  WS02006256           JUNCTION     0.74     2.35     9.28     0  00:00        2.35
  WS02006280           JUNCTION     0.18     1.60     9.87     0  02:26        1.49
  WS02006284           JUNCTION     0.45     1.73    10.12     0  02:26        1.48
  WS02006287           JUNCTION     0.19     1.46    10.41     0  02:26        1.12
  WSF200               JUNCTION     0.18     0.49     5.72     0  02:29        0.49
  YS02001580           JUNCTION     0.02     1.05     9.59     0  02:26        0.68
  YS02001583           JUNCTION     0.05     1.04     9.53     0  02:26        0.72
  YS02001586           JUNCTION     0.09     1.13     9.30     0  02:26        0.97
  YS02001590           JUNCTION     0.17     1.40     9.26     0  02:24        1.19
  YS02001593           JUNCTION     0.11     1.40     9.27     0  02:24        1.15
  YS02001596           JUNCTION     0.15     1.79     9.21     0  02:24        1.55
  YS02001600           JUNCTION     0.20     1.87     9.00     0  02:24        1.82
  YS02001601           JUNCTION     0.39     2.06     8.90     0  02:24        2.06
  YS02001602           JUNCTION     0.31     1.87     8.77     0  02:26        1.83
  YS02001605           JUNCTION     0.29     1.74     8.64     0  02:26        1.64
  YS02001607           JUNCTION     0.29     1.55     8.40     0  02:26        1.34
  YS02001610           JUNCTION     0.33     1.60     8.40     0  02:26        1.37
  YS02001613           JUNCTION     0.29     1.54     8.39     0  02:26        1.31
  YS02001616           JUNCTION     0.23     1.45     8.37     0  02:26        1.20
  YS02001619           JUNCTION     0.20     1.41     8.34     0  02:26        1.16
  YS02001622           JUNCTION     0.19     1.62     8.52     0  02:26        1.62
  YS02001625           JUNCTION     0.44     1.78     8.38     0  02:26        1.78
  YS02001629           JUNCTION     0.29     1.71     8.25     0  02:26        1.35
  YS02001633           JUNCTION     0.37     1.64     8.09     0  02:26        1.36
  YS02001641           JUNCTION     0.36     1.29     7.73     0  02:26        1.17
  YS02001644           JUNCTION     0.36     1.16     7.59     0  02:26        1.11
  YS02001647           JUNCTION     0.15     0.75     7.36     0  02:26        0.73
  YS02001649           JUNCTION     0.17     0.84     7.23     0  02:28        0.81
  YS02001652           JUNCTION     0.08     0.64     7.24     0  02:28        0.64
  YS02001655           JUNCTION     0.05     0.38     7.23     0  02:27        0.35
  YS02001658           JUNCTION     0.04     0.23     7.38     0  02:25        0.23
  YS02001661           JUNCTION     0.10     0.29     7.70     0  02:25        0.29
  YS02001664           JUNCTION     0.04     0.20     8.13     0  02:25        0.20
  YS02001745           JUNCTION     0.03     0.18     7.70     0  02:25        0.18
  YS02001748           JUNCTION     0.04     0.20     7.28     0  02:25        0.20
  YS02001751           JUNCTION     0.04     0.20     7.08     0  02:25        0.20
  YS02001754           JUNCTION     0.05     0.48     7.09     0  02:28        0.48
  YS02001757           JUNCTION     0.17     0.81     7.07     0  02:28        0.79
  YS02001759           JUNCTION     0.12     0.71     7.07     0  02:28        0.70
  YS02001762           JUNCTION     0.12     0.68     7.08     0  02:29        0.67
  YS02001765           JUNCTION     0.10     0.64     7.09     0  02:30        0.63
  YS02001767           JUNCTION     0.11     0.61     7.10     0  02:29        0.60
  YS02001770           JUNCTION     0.12     0.62     7.11     0  02:29        0.61
  YS02001774           JUNCTION     0.18     0.70     7.12     0  02:28        0.69
  YS02001779           JUNCTION     0.03     0.45     7.13     0  02:29        0.44
  YS02001783           JUNCTION     0.15     0.77     6.91     0  02:28        0.77
  YS02001784           JUNCTION     0.18     0.76     6.83     0  02:29        0.76
  YS02001786           JUNCTION     0.15     0.62     6.65     0  02:29        0.62
  YS02001788           JUNCTION     0.11     0.49     6.47     0  02:29        0.49
  YS02001790           JUNCTION     0.13     0.58     6.23     0  02:29        0.58
  YS02001791           JUNCTION     0.09     0.35     5.82     0  02:30        0.35
  YS02001793           JUNCTION     0.04     0.18     5.01     0  02:29        0.18
  YS02001882           JUNCTION     0.19     0.81     7.53     0  02:29        0.81
  YS02001884           JUNCTION     0.28     0.91     7.53     0  02:28        0.91
  YS02001887           JUNCTION     0.35     0.99     7.53     0  02:29        0.99
  YS02001890           JUNCTION     0.38     1.02     7.53     0  02:29        1.02
  YS02001895           JUNCTION     0.16     0.78     7.53     0  02:29        0.78
  YS02001898           JUNCTION     0.17     0.79     7.53     0  02:28        0.79
  YS02001901           JUNCTION     0.28     0.92     7.53     0  02:28        0.91
  YS02001904           JUNCTION     0.26     0.90     7.53     0  02:28        0.89
  YS02001907           JUNCTION     0.57     1.24     7.53     0  02:28        1.22
  YS02001910           JUNCTION     0.37     1.04     7.54     0  02:28        1.02
  YS02001915           JUNCTION     0.19     0.83     7.54     0  02:28        0.81
  YS02001918           JUNCTION     0.07     0.48     7.55     0  02:28        0.48
  YS02001920           JUNCTION     0.15     0.55     7.56     0  02:29        0.53
  YS02001923           JUNCTION     0.04     0.29     7.55     0  02:29        0.29
  YS02001926           JUNCTION     0.10     0.31     7.76     0  02:26        0.31
  YS02001929           JUNCTION     0.04     0.18     7.87     0  02:26        0.18
  YS02006553           JUNCTION     0.57     1.24     7.52     0  02:28        1.22
  YS02006556           JUNCTION     0.55     1.19     7.50     0  02:28        1.18
  YS02006558           JUNCTION     0.59     1.22     7.49     0  02:28        1.21
  YS02006561           JUNCTION     0.09     0.40     7.06     0  02:28        0.40
  YS02163301           JUNCTION     0.32     1.66     8.18     0  02:26        1.34
  YS02163601           JUNCTION     0.41     1.52     7.92     0  02:26        1.32
  YS02164001           JUNCTION     0.35     1.36     7.82     0  02:26        1.19
  YSB1154              JUNCTION     0.33     2.03    11.09     0  02:26        2.03
  YSB1171              JUNCTION     0.47     1.95    10.85     0  02:26        1.95
  YSB1174              JUNCTION     0.28     1.85    10.95     0  02:26        1.85
  YSB6556              JUNCTION     0.23     1.80    10.97     0  02:26        1.80
  CC-1                 OUTFALL      0.00     0.00     0.00     0  00:00        0.00
  CC-2                 OUTFALL      0.00     0.00     0.00     0  00:00        0.00
  JK-1                 OUTFALL      0.00     0.00     0.00     0  00:00        0.00
  JK-2                 OUTFALL      0.00     0.00     0.00     0  00:00        0.00
  WSC                  OUTFALL      0.26     0.49     1.16     0  02:32        0.49
  CC-storage           STORAGE      0.51     0.80     6.30     0  00:00        0.76
  JK-storage           STORAGE      1.29     4.21     5.01     0  02:29        4.07
  XR-storage           STORAGE      7.87     9.26     7.26     0  08:00        9.26
  
  
  *******************
  Node Inflow Summary
  *******************
  
  -------------------------------------------------------------------------------------------------
                                  Maximum  Maximum                  Lateral       Total        Flow
                                  Lateral    Total  Time of Max      Inflow      Inflow     Balance
                                   Inflow   Inflow   Occurrence      Volume      Volume       Error
  Node                 Type           LPS      LPS  days hr:min    10^6 ltr    10^6 ltr     Percent
  -------------------------------------------------------------------------------------------------
  HS02004478           JUNCTION      0.00  2091.04     0  02:26           0        3.93      -0.037
  HS02004479           JUNCTION      0.00   348.77     0  02:26           0       0.396       0.124
  HS02004480           JUNCTION      0.00  2023.37     0  02:26           0        3.02       0.072
  HS02004770           JUNCTION    565.25   703.04     0  02:25       0.836        1.02       0.285
  HS02004777           JUNCTION      0.03   722.72     0  02:25    0.000864        1.01       0.498
  HS02004785           JUNCTION      0.15   728.12     0  02:25     0.00432        1.01       0.049
  HS02004788           JUNCTION    198.02   875.82     0  02:26       0.345        1.36       0.032
  HS02004792           JUNCTION    703.91  1563.61     0  02:26        1.12        2.48       0.018
  HS02004799           JUNCTION    120.75  1677.64     0  02:26       0.162        2.64       0.096
  HS02004802           JUNCTION      0.00   330.55     0  02:38           0       0.934       0.432
  HS02004807           JUNCTION    157.70   344.17     0  02:26       0.207       0.967       0.433
  HS02004817           JUNCTION      0.60   343.88     0  02:26      0.0173       0.806       2.071
  HS02004824           JUNCTION    210.47   554.45     0  02:26       0.424       0.869       0.068
  HS02004830           JUNCTION      0.15   563.81     0  02:26     0.00432       0.525       0.238
  HS02004837           JUNCTION    154.96   644.78     0  02:26       0.394       0.615       0.134
  HS02004842           JUNCTION      0.00   575.13     0  02:27           0       0.316       4.262
  HS02004848           JUNCTION    189.59   763.07     0  02:27       0.378       0.578       0.011
  HS02004852           JUNCTION      0.00   749.21     0  02:27           0       0.476       0.011
  HS02004856           JUNCTION     61.92   785.97     0  02:28      0.0825       0.559       0.258
  HS02004862           JUNCTION     90.18   859.09     0  02:28       0.167       0.724       0.022
  HS02004870           JUNCTION     85.04   960.48     0  02:28       0.113       0.837       0.014
  HS02004876           JUNCTION     92.34  1006.83     0  02:29       0.138       0.982       0.064
  HS02004881           JUNCTION     47.77  1062.10     0  02:29      0.0614        1.07       0.034
  HS02004901           JUNCTION    136.28   136.28     0  02:25       0.183       0.183       0.941
  WS02001211           JUNCTION      7.35   209.59     0  02:45       0.212        5.44       0.612
  WS02001212           JUNCTION      0.00   221.39     0  02:45           0        5.41       0.290
  WS02001213           JUNCTION      0.00   228.13     0  02:45           0        5.39       0.332
  WS02003059           JUNCTION      0.00   236.98     0  02:44           0        5.38       0.595
  WS02003060           JUNCTION     16.53  1402.36     0  02:30       0.476        10.7       0.137
  WS02003066           JUNCTION      0.00  1209.84     0  02:27           0        4.87       0.030
  WS02003067           JUNCTION      0.00  1208.08     0  02:27           0        4.88       0.089
  WS02003069           JUNCTION      0.32  1401.30     0  02:30     0.00922        10.7       0.144
  WS02003072           JUNCTION      0.00  1400.67     0  02:31           0        10.7       0.195
  WS02003073           JUNCTION      1.82  1402.64     0  02:31      0.0524        10.7       0.202
  WS02004138           JUNCTION      0.00   380.00     0  00:00           0        5.25       0.058
  WS02004139           JUNCTION      0.32   190.32     0  00:30     0.00924        5.26       0.509
  WS02004401           JUNCTION      0.00  1217.81     0  02:26           0        4.98       0.212
  WS02004402           JUNCTION      0.00  1217.96     0  02:26           0        4.97       0.213
  WS02004403           JUNCTION      0.00  1216.74     0  02:26           0        4.96       0.209
  WS02004404           JUNCTION      0.16  1217.59     0  02:26     0.00467        4.95       0.177
  WS02004405           JUNCTION      0.04  1222.55     0  02:26      0.0011        4.95       0.249
  WS02004406           JUNCTION      0.00  1226.01     0  02:26           0        4.93       0.435
  WS02004407           JUNCTION      0.00  1227.33     0  02:26           0        4.91       0.029
  WS02004409           JUNCTION      0.00  1208.06     0  02:27           0        4.91       0.059
  WS02004410           JUNCTION      0.00  1208.19     0  02:27           0        4.91       0.097
  WS02004411           JUNCTION      0.00  1208.91     0  02:27           0         4.9       0.122
  WS02004412           JUNCTION      0.00  1208.41     0  02:26           0         4.9       0.160
  WS02004413           JUNCTION      0.00  1208.16     0  02:27           0        4.89       0.286
  WS02006109           JUNCTION      1.23  1103.13     0  02:26      0.0354        4.87       0.220
  WS02006110           JUNCTION      0.00  1099.11     0  02:34           0        4.86       0.138
  WS02006111           JUNCTION      0.00  1099.60     0  02:26           0        4.85       0.026
  WS02006112           JUNCTION    117.63  1214.43     0  02:26       0.163        5.01       0.434
  WS02006113           JUNCTION      0.00  1099.12     0  02:34           0        4.85       0.043
  WS02006115           JUNCTION      0.00  1215.48     0  02:26           0        4.99       0.144
  WS02006116           JUNCTION      0.00  1217.56     0  02:26           0        4.98       0.074
  WS02006228           JUNCTION      0.00  1099.67     0  02:26           0        4.84       0.123
  WS02006229           JUNCTION      0.00  1827.31     0  02:26           0        5.41       0.131
  WS02006230           JUNCTION     10.28   751.69     0  02:26       0.296        2.08       0.453
  WS02006231           JUNCTION      0.00   497.89     0  03:07           0        1.69      -0.140
  WS02006232           JUNCTION      0.00   510.38     0  03:17           0        1.69       0.233
  WS02006234           JUNCTION      0.00   575.84     0  03:17           0        1.68      -0.350
  WS02006235           JUNCTION      0.00   624.12     0  03:17           0        1.72       0.351
  WS02006238           JUNCTION      0.00   597.68     0  03:17           0        1.65      -0.302
  WS02006239           JUNCTION      0.00   596.11     0  03:17           0        1.61      -0.394
  WS02006240           JUNCTION      0.00   633.22     0  03:16           0         1.6      -0.119
  WS02006242           JUNCTION      0.00   705.75     0  03:16           0        1.59      -0.359
  WS02006243           JUNCTION      0.00   733.34     0  03:16           0        1.45      -0.771
  WS02006245           JUNCTION      0.00   796.27     0  03:16           0        1.46       0.960
  WS02006247           JUNCTION      0.00   860.65     0  03:16           0        1.46      -0.462
  WS02006248           JUNCTION      0.00   872.61     0  03:16           0        1.55      -0.565
  WS02006249           JUNCTION      0.00  1198.76     0  02:32           0        2.52       0.475
  WS02006251           JUNCTION      0.08  1271.95     0  02:15     0.00222        2.67       0.095
  WS02006252           JUNCTION      0.00  2000.00     0  00:45           0        1.94      -2.043
  WS02006253           JUNCTION     15.96  1116.79     0  02:33      0.0193        1.22      -0.304
  WS02006256           JUNCTION      0.00  1500.00     0  00:20           0       0.707       3.579
  WS02006280           JUNCTION      0.00  1822.49     0  02:26           0        3.92       0.021
  WS02006284           JUNCTION      0.10  1819.21     0  02:26     0.00275        3.92      -0.003
  WS02006287           JUNCTION      0.00  1832.10     0  02:26           0        3.92       0.020
  WSF200               JUNCTION      0.00  1209.94     0  02:27           0        4.87       0.014
  YS02001580           JUNCTION      0.00   102.82     0  02:26           0      0.0041      -1.115
  YS02001583           JUNCTION      0.00   157.07     0  02:26           0      0.0149      -4.728
  YS02001586           JUNCTION    228.19   241.83     0  02:27       0.491       0.502       0.305
  YS02001590           JUNCTION      0.00   241.49     0  02:27           0       0.489      -0.063
  YS02001593           JUNCTION      0.00   240.98     0  02:27           0       0.489       0.028
  YS02001596           JUNCTION      0.00   240.93     0  02:27           0       0.489      -0.012
  YS02001600           JUNCTION      0.00   241.07     0  02:27           0       0.489       0.008
  YS02001601           JUNCTION    425.25   654.71     0  02:27       0.711         1.2       0.063
  YS02001602           JUNCTION      0.00   523.24     0  02:25           0        1.17       0.028
  YS02001605           JUNCTION      0.00   524.50     0  02:25           0        1.17       0.030
  YS02001607           JUNCTION      0.00   527.98     0  02:25           0        1.17       0.152
  YS02001610           JUNCTION      0.00   529.38     0  02:25           0        1.17       0.189
  YS02001613           JUNCTION      0.00   536.25     0  02:25           0        1.17       0.132
  YS02001616           JUNCTION      0.00   543.59     0  02:25           0        1.17       0.030
  YS02001619           JUNCTION    391.99   902.85     0  02:25       0.738         1.9       0.005
  YS02001622           JUNCTION      0.00   901.87     0  02:26           0         1.9      -0.000
  YS02001625           JUNCTION      0.00   906.38     0  02:26           0         1.9       0.475
  YS02001629           JUNCTION      0.00   906.87     0  02:26           0        1.89       0.038
  YS02001633           JUNCTION    323.64  1214.39     0  02:26       0.522        2.42       0.143
  YS02001641           JUNCTION      0.00  1212.92     0  02:26           0        2.41       0.117
  YS02001644           JUNCTION    278.39  1484.79     0  02:26       0.424        2.83       0.118
  YS02001647           JUNCTION      0.00  1486.71     0  02:26           0        2.82       0.010
  YS02001649           JUNCTION      0.00  1757.25     0  02:28           0        3.22       0.012
  YS02001652           JUNCTION      0.00   323.56     0  02:27           0        0.39      -0.240
  YS02001655           JUNCTION      0.15   280.82     0  02:25     0.00443        0.39       0.179
  YS02001658           JUNCTION      0.00   280.13     0  02:25           0       0.386      -0.007
  YS02001661           JUNCTION      0.00   279.40     0  02:25           0       0.386       0.084
  YS02001664           JUNCTION    279.77   279.77     0  02:25       0.386       0.386      -0.007
  YS02001745           JUNCTION    180.83   180.83     0  02:25       0.235       0.235      -0.002
  YS02001748           JUNCTION      0.04   180.61     0  02:25      0.0013       0.236       0.001
  YS02001751           JUNCTION      0.01   181.37     0  02:25    0.000317       0.236       0.352
  YS02001754           JUNCTION      0.26   185.63     0  02:25     0.00749       0.243      -0.440
  YS02001757           JUNCTION      0.00  2330.85     0  02:28           0        4.33       0.031
  YS02001759           JUNCTION    259.82   505.88     0  02:30       0.339       0.866      -0.004
  YS02001762           JUNCTION      0.00   322.00     0  02:30           0       0.527       0.028
  YS02001765           JUNCTION      0.00   304.43     0  02:29           0       0.527       0.025
  YS02001767           JUNCTION      0.54   307.13     0  02:25      0.0154       0.527       0.044
  YS02001770           JUNCTION    354.38   354.38     0  02:25       0.513       0.536       0.003
  YS02001774           JUNCTION      0.00    50.68     0  02:28           0      0.0322       3.721
  YS02001779           JUNCTION      0.01    29.62     0  02:28    0.000144     0.00761       0.102
  YS02001783           JUNCTION      0.00   849.87     0  02:28           0        1.57       0.017
  YS02001784           JUNCTION      1.06   849.29     0  02:28      0.0305         1.6       0.031
  YS02001786           JUNCTION      0.06   848.94     0  02:29     0.00162        1.61       0.039
  YS02001788           JUNCTION      0.07   849.33     0  02:29     0.00204        1.61       0.019
  YS02001790           JUNCTION      0.15   851.07     0  02:29     0.00446        1.61       0.026
  YS02001791           JUNCTION      0.00   893.13     0  02:30           0        1.61       0.009
  YS02001793           JUNCTION      0.00   854.47     0  02:29           0        1.61       0.011
  YS02001882           JUNCTION      0.00    22.99     0  02:26           0      0.0107       6.142
  YS02001884           JUNCTION      0.00    49.61     0  02:26           0       0.042       6.299
  YS02001887           JUNCTION    287.57   287.57     0  02:25       0.368       0.396       1.142
  YS02001890           JUNCTION      0.00   252.00     0  02:25           0        0.36       1.438
  YS02001895           JUNCTION      0.00   239.76     0  02:25           0       0.355       0.351
  YS02001898           JUNCTION      0.00   212.05     0  02:25           0       0.354       0.162
  YS02001901           JUNCTION      0.00   209.38     0  02:28           0       0.356       0.888
  YS02001904           JUNCTION      0.00   214.35     0  02:35           0        0.36       0.816
  YS02001907           JUNCTION      0.00   605.23     0  02:30           0        1.12       1.622
  YS02001910           JUNCTION      0.00   401.74     0  02:30           0       0.771       0.929
  YS02001915           JUNCTION    286.88   389.95     0  02:29       0.441       0.772       0.219
  YS02001918           JUNCTION      0.00   163.22     0  02:29           0       0.332       0.096
  YS02001920           JUNCTION      2.87   156.50     0  02:30      0.0827       0.333       0.319
  YS02001923           JUNCTION      0.04   143.63     0  02:26     0.00109        0.25       0.005
  YS02001926           JUNCTION      0.05   144.29     0  02:26      0.0015        0.25       0.086
  YS02001929           JUNCTION    144.46   144.46     0  02:26       0.248       0.248      -0.004
  YS02006553           JUNCTION      0.00   605.00     0  02:30           0        1.11       1.065
  YS02006556           JUNCTION      0.00   604.43     0  02:30           0        1.12       0.746
  YS02006558           JUNCTION    353.38   848.82     0  02:28       0.505         1.6       0.216
  YS02006561           JUNCTION      0.00   848.56     0  02:28           0        1.57       0.002
  YS02163301           JUNCTION      0.00   894.05     0  02:26           0         1.9       0.079
  YS02163601           JUNCTION      0.11  1215.02     0  02:26     0.00317        2.41       0.201
  YS02164001           JUNCTION      0.00  1215.08     0  02:26           0        2.41       0.101
  YSB1154              JUNCTION    152.26   152.26     0  02:25       0.223       0.224       0.624
  YSB1171              JUNCTION      0.00   328.18     0  02:26           0       0.395       1.574
  YSB1174              JUNCTION    134.98   134.98     0  02:25       0.164       0.164       0.725
  YSB6556              JUNCTION      0.00   160.13     0  02:26           0       0.225       0.446
  CC-1                 OUTFALL       0.00  3415.00     0  01:50           0       0.832       0.000
  CC-2                 OUTFALL       0.00  3415.00     0  00:45           0        2.42       0.000
  JK-1                 OUTFALL       0.00  5000.00     0  02:25           0       0.674       0.000
  JK-2                 OUTFALL       0.00  5000.00     0  02:35           0       0.353       0.000
  WSC                  OUTFALL       0.00  1402.86     0  02:32           0        10.7       0.000
  CC-storage           STORAGE       0.00  2276.04     0  02:28           0        6.55      -0.299
  JK-storage           STORAGE       0.00   854.58     0  02:29           0        1.76      -1.048
  XR-storage           STORAGE     200.00   200.00     0  00:00        5.76        6.36       0.001
  
  
  **********************
  Node Surcharge Summary
  **********************
  
  Surcharging occurs when water rises above the top of the highest conduit.
  ---------------------------------------------------------------------
                                               Max. Height   Min. Depth
                                   Hours       Above Crown    Below Rim
  Node                 Type      Surcharged         Meters       Meters
  ---------------------------------------------------------------------
  HS02004478           JUNCTION        0.02          0.330        0.610
  HS02004479           JUNCTION        0.14          0.748        0.302
  HS02004480           JUNCTION        0.18          0.685        0.415
  HS02004770           JUNCTION        0.11          0.720        0.000
  HS02004777           JUNCTION        0.11          0.780        0.000
  HS02004785           JUNCTION        0.07          0.721        0.069
  HS02004788           JUNCTION        0.06          0.658        0.062
  HS02004792           JUNCTION        0.15          0.900        0.000
  HS02004799           JUNCTION        0.23          0.940        0.120
  HS02004802           JUNCTION        0.18          0.615        0.595
  HS02004807           JUNCTION        0.16          0.496        0.724
  HS02004817           JUNCTION        0.50          0.785        0.955
  HS02004824           JUNCTION        0.05          0.239        1.071
  HS02004830           JUNCTION        0.01          0.064        1.266
  HS02004842           JUNCTION        0.11          0.205        1.315
  HS02004876           JUNCTION        0.04          0.474        1.086
  HS02004881           JUNCTION        0.01          0.004        1.446
  HS02004901           JUNCTION        0.12          0.720        0.000
  WS02004401           JUNCTION        0.70          0.792        0.868
  WS02004402           JUNCTION        0.71          0.728        1.012
  WS02004403           JUNCTION        0.72          0.623        1.407
  WS02004404           JUNCTION        0.82          0.628        2.152
  WS02004405           JUNCTION        0.78          0.586        2.214
  WS02004406           JUNCTION        0.77          0.458        1.992
  WS02004409           JUNCTION        0.36          0.284        2.076
  WS02004410           JUNCTION        0.35          0.212        2.328
  WS02004411           JUNCTION        0.32          0.142        2.388
  WS02004412           JUNCTION        0.25          0.059        2.251
  WS02004413           JUNCTION        0.50          0.116        2.084
  WS02006109           JUNCTION        1.22          1.820        0.000
  WS02006110           JUNCTION        0.94          1.423        0.427
  WS02006111           JUNCTION        0.48          0.820        1.050
  WS02006112           JUNCTION        1.02          1.262        0.418
  WS02006113           JUNCTION        0.49          0.941        0.989
  WS02006115           JUNCTION        0.63          0.870        1.380
  WS02006116           JUNCTION        0.65          0.816        1.474
  WS02006228           JUNCTION        1.20          2.122        0.078
  WS02006229           JUNCTION        0.35          0.916        0.154
  WS02006230           JUNCTION        0.78          1.570        0.000
  WS02006231           JUNCTION        0.81          1.479        0.051
  WS02006232           JUNCTION        1.08          1.480        0.000
  WS02006234           JUNCTION        0.86          1.240        0.000
  WS02006235           JUNCTION        0.90          1.290        0.000
  WS02006238           JUNCTION        0.94          1.308        0.122
  WS02006239           JUNCTION        0.85          1.140        0.150
  WS02006240           JUNCTION        0.85          1.013        0.377
  WS02006242           JUNCTION        0.91          0.820        0.000
  WS02006243           JUNCTION        0.82          0.770        0.000
  WS02006245           JUNCTION        0.80          0.850        0.000
  WS02006247           JUNCTION        0.82          0.760        0.000
  WS02006248           JUNCTION        0.76          0.380        0.000
  WS02006249           JUNCTION        0.78          0.390        0.000
  WS02006251           JUNCTION        0.55          1.180        0.000
  WS02006252           JUNCTION        0.83          1.100        0.000
  WS02006253           JUNCTION        0.63          2.421        0.059
  WS02006256           JUNCTION        5.71          2.050        0.000
  WS02006280           JUNCTION        0.25          0.546        0.234
  WS02006284           JUNCTION        0.19          0.446        0.354
  WS02006287           JUNCTION        0.12          0.455        0.435
  YS02001580           JUNCTION        0.01          0.450        0.000
  YS02001583           JUNCTION        0.01          0.398        0.102
  YS02001586           JUNCTION        0.14          0.510        0.000
  YS02001590           JUNCTION        0.20          0.750        0.000
  YS02001593           JUNCTION        0.20          0.784        0.056
  YS02001596           JUNCTION        0.27          1.063        0.007
  YS02001600           JUNCTION        0.36          1.190        0.000
  YS02001601           JUNCTION        0.60          1.440        0.000
  YS02001602           JUNCTION        0.52          1.270        0.000
  YS02001605           JUNCTION        0.48          1.140        0.040
  YS02001607           JUNCTION        0.15          0.551        0.129
  YS02001610           JUNCTION        0.17          0.600        0.080
  YS02001613           JUNCTION        0.14          0.544        0.156
  YS02001616           JUNCTION        0.11          0.453        0.157
  YS02001619           JUNCTION        0.10          0.409        0.201
  YS02001622           JUNCTION        0.09          0.620        0.000
  YS02001625           JUNCTION        0.23          0.780        0.000
  YS02001629           JUNCTION        0.01          0.326        0.144
  YS02001633           JUNCTION        0.24          0.620        0.440
  YS02001641           JUNCTION        0.17          0.292        0.808
  YS02001644           JUNCTION        0.12          0.158        0.762
  YS02001907           JUNCTION        0.23          0.234        0.716
  YS02001910           JUNCTION        0.05          0.036        1.064
  YS02006553           JUNCTION        0.23          0.236        0.954
  YS02006556           JUNCTION        0.16          0.149        1.201
  YS02006558           JUNCTION        0.15          0.123        1.277
  YS02163301           JUNCTION        0.23          0.661        0.369
  YS02163601           JUNCTION        0.26          0.517        0.563
  YS02164001           JUNCTION        0.18          0.365        0.735
  YSB1154              JUNCTION        0.30          1.334        0.066
  YSB1171              JUNCTION        0.30          1.100        0.000
  YSB1174              JUNCTION        0.26          1.145        0.105
  YSB6556              JUNCTION        0.22          1.100        0.000
  
  
  *********************
  Node Flooding Summary
  *********************
  
  Flooding refers to all water that overflows a node, whether it ponds or not.
  --------------------------------------------------------------------------
                                                             Total   Maximum
                                 Maximum   Time of Max       Flood    Ponded
                        Hours       Rate    Occurrence      Volume     Depth
  Node                 Flooded       LPS   days hr:min    10^6 ltr    Meters
  --------------------------------------------------------------------------
  HS02004770              0.01     86.60      0  02:25       0.001     0.000
  HS02004777              0.01     21.22      0  02:25       0.000     0.000
  HS02004792              0.01      1.13      0  02:26       0.000     0.000
  HS02004901              0.01     56.35      0  02:26       0.001     0.000
  WS02006109              0.01     11.94      0  02:26       0.000     0.000
  WS02006230              0.20    299.18      0  02:26       0.108     0.000
  WS02006232              0.05      0.60      0  02:28       0.000     0.000
  WS02006234              0.24    127.68      0  02:30       0.057     0.000
  WS02006235              0.01      5.01      0  02:40       0.000     0.000
  WS02006242              0.34    282.83      0  03:06       0.128     0.000
  WS02006243              0.01    287.15      0  02:16       0.002     0.000
  WS02006245              0.01    281.52      0  03:06       0.001     0.000
  WS02006247              0.01    283.07      0  03:05       0.001     0.000
  WS02006248              0.44    354.01      0  02:16       0.433     0.000
  WS02006249              0.63   1137.50      0  02:32       1.293     0.000
  WS02006251              0.01    537.68      0  02:50       0.001     0.000
  WS02006252              0.39   1381.02      0  02:15       0.512     0.000
  WS02006256              0.23   1493.45      0  02:25       0.555     0.000
  YS02001580              0.01     62.92      0  02:26       0.000     0.000
  YS02001586              0.01     58.51      0  02:26       0.001     0.000
  YS02001590              0.01     28.60      0  02:24       0.000     0.000
  YS02001600              0.01      6.95      0  02:24       0.000     0.000
  YS02001601              0.09    181.14      0  02:27       0.028     0.000
  YS02001602              0.01      4.76      0  02:26       0.000     0.000
  YS02001622              0.01     27.46      0  02:26       0.000     0.000
  YS02001625              0.01     12.43      0  02:26       0.000     0.000
  YSB1171                 0.01      3.82      0  02:26       0.000     0.000
  YSB6556                 0.01      3.92      0  02:26       0.000     0.000
  
  
  **********************
  Storage Volume Summary
  **********************
  
  --------------------------------------------------------------------------------------------------
                         Average     Avg  Evap Exfil       Maximum     Max    Time of Max    Maximum
                          Volume    Pcnt  Pcnt  Pcnt        Volume    Pcnt     Occurrence    Outflow
  Storage Unit           1000 m3    Full  Loss  Loss       1000 m3    Full    days hr:min        LPS
  --------------------------------------------------------------------------------------------------
  CC-storage               1.426      22     0     0         2.229      35       0  00:00    7830.00
  JK-storage               0.065      22     0     0         0.211      73       0  02:29   10300.00
  XR-storage               0.944      66     0     0         1.111      77       0  08:00     380.00
  
  
  ***********************
  Outfall Loading Summary
  ***********************
  
  -----------------------------------------------------------
                         Flow       Avg       Max       Total
                         Freq      Flow      Flow      Volume
  Outfall Node           Pcnt       LPS       LPS    10^6 ltr
  -----------------------------------------------------------
  CC-1                   1.86   2071.39   3415.00       0.832
  CC-2                   5.25   2937.56   3415.00       2.419
  JK-1                   1.23   3347.11   5000.00       0.674
  JK-2                   0.66   3707.69   5000.00       0.353
  WSC                   99.94    492.27   1402.86      10.676
  -----------------------------------------------------------
  System                21.79  12556.02   1402.86      14.954
  
  
  ********************
  Link Flow Summary
  ********************
  
  -----------------------------------------------------------------------------
                                 Maximum  Time of Max   Maximum    Max/    Max/
                                  |Flow|   Occurrence   |Veloc|    Full    Full
  Link                 Type          LPS  days hr:min     m/sec    Flow   Depth
  -----------------------------------------------------------------------------
  1                    CONDUIT   1402.86     0  02:32      3.63    0.49    0.49
  HS02004478WS02006287 CONDUIT   1832.10     0  02:26      2.61    0.51    1.00
  HS02004479HS02004480 CONDUIT    358.74     0  02:26      0.51    0.35    1.00
  HS02004480HS02004478 CONDUIT   2064.56     0  02:26      2.95    8.70    1.00
  HS02004770HS02004777 CONDUIT    722.69     0  02:25      1.03    1.32    1.00
  HS02004777HS02004785 CONDUIT    727.97     0  02:25      1.08    0.90    1.00
  HS02004785HS02004788 CONDUIT    682.70     0  02:26      1.40    5.15    1.00
  HS02004788HS02004792 CONDUIT    877.23     0  02:26      1.48    0.58    1.00
  HS02004792HS02004799 CONDUIT   1564.55     0  02:26      2.24    0.96    1.00
  HS02004799HS02004480 CONDUIT   1678.28     0  02:26      2.40    2.12    1.00
  HS02004802HS02004478 CONDUIT    355.26     0  02:35      0.72    0.31    1.00
  HS02004807HS02004802 CONDUIT    330.55     0  02:38      0.62    0.63    1.00
  HS02004817HS02004807 CONDUIT    343.28     0  02:26      0.49    0.20    1.00
  HS02004817HS02004824 CONDUIT    344.71     0  02:26      0.54    0.16    1.00
  HS02004824HS02004830 CONDUIT    563.66     0  02:26      0.85    0.74    1.00
  HS02004830HS02004837 CONDUIT    498.43     0  02:26      0.78    0.50    0.94
  HS02004837HS02004842 CONDUIT    575.13     0  02:27      0.88    0.34    0.94
  HS02004842HS02004848 CONDUIT    575.54     0  02:27      0.96    0.34    0.87
  HS02004848HS02004852 CONDUIT    749.21     0  02:27      1.43    0.84    0.75
  HS02004852HS02004856 CONDUIT    735.69     0  02:28      1.34    0.84    0.79
  HS02004856HS02004862 CONDUIT    775.36     0  02:28      1.54    0.77    0.73
  HS02004862HS02004870 CONDUIT    896.08     0  02:28      1.88    0.97    0.68
  HS02004870HS02004876 CONDUIT    930.75     0  02:29      1.83    0.62    0.85
  HS02004876HS02004881 CONDUIT   1028.78     0  02:29      2.60   10.94    1.00
  HS02004881HS02006253 CONDUIT   1111.22     0  02:33      2.71    0.22    1.00
  HS02004901HS02004770 CONDUIT    140.49     0  02:25      0.20    0.53    1.00
  WS02001211WS02001212 CONDUIT    221.39     0  02:45      0.54    0.17    0.67
  WS02001212WS02001213 CONDUIT    228.13     0  02:45      1.04    0.35    0.53
  WS02001213WS02003059 CONDUIT    236.98     0  02:44      0.47    0.39    0.86
  WS02003059WS02003060 CONDUIT    246.95     0  02:44      0.66    0.16    0.78
  WS02003060WS02003069 CONDUIT   1400.98     0  02:30      2.05    0.55    0.58
  WS02003066WSF200     CONDUIT   1209.94     0  02:27      3.28    0.20    0.36
  WS02003067WS02003066 CONDUIT   1209.84     0  02:27      1.92    0.39    0.55
  WS02003069WS02003072 CONDUIT   1400.67     0  02:31      1.85    0.67    0.64
  WS02003072WS02003073 CONDUIT   1400.81     0  02:31      2.00    3.03    0.59
  WS02004138WS02004139 CONDUIT    190.00     0  00:30      2.16    0.04    0.40
  WS02004139WS02001211 CONDUIT    202.24     0  02:45      0.54    0.26    0.59
  WS02004401WS02004402 CONDUIT   1217.96     0  02:26      1.55    1.46    1.00
  WS02004402WS02004403 CONDUIT   1216.74     0  02:26      1.55    1.75    1.00
  WS02004403WS02004404 CONDUIT   1217.43     0  02:26      1.55    0.88    1.00
  WS02004404WS02004405 CONDUIT   1222.51     0  02:26      1.61   11.98    1.00
  WS02004405WS02004406 CONDUIT   1226.01     0  02:26      1.59    2.42    1.00
  WS02004406WS02004407 CONDUIT   1227.33     0  02:26      1.77    0.55    0.89
  WS02004407WS02004409 CONDUIT   1208.06     0  02:27      1.82    0.43    0.89
  WS02004409WS02004410 CONDUIT   1208.19     0  02:27      1.54    1.56    1.00
  WS02004410WS02004411 CONDUIT   1208.91     0  02:27      1.54    1.65    1.00
  WS02004411WS02004412 CONDUIT   1208.41     0  02:26      1.54    1.72    1.00
  WS02004412WS02004413 CONDUIT   1208.16     0  02:27      1.54    0.81    1.00
  WS02004413WS02003067 CONDUIT   1208.08     0  02:27      1.90    0.52    0.76
  WS02006109WS02006110 CONDUIT   1099.11     0  02:34      2.19    2.11    1.00
  WS02006110WS02006113 CONDUIT   1099.12     0  02:34      2.19    1.00    1.00
  WS02006111WS02006112 CONDUIT   1100.89     0  02:26      2.25    0.52    1.00
  WS02006112WS02006115 CONDUIT   1215.48     0  02:26      1.55    0.72    1.00
  WS02006113WS02006111 CONDUIT   1099.60     0  02:26      2.62    1.32    1.00
  WS02006115WS02006116 CONDUIT   1217.56     0  02:26      1.55    1.56    1.00
  WS02006116WS02004401 CONDUIT   1217.81     0  02:26      1.55    1.68    1.00
  WS02006228WS02006109 CONDUIT   1101.90     0  02:26      2.19    4.81    1.00
  WS02006229WS02006228 CONDUIT   1099.67     0  02:26      2.19    3.64    1.00
  WS02006230WS02006229 CONDUIT    741.41     0  02:26      1.93   16.50    1.00
  WS02006231WS02006230 CONDUIT    472.91     0  03:07      1.52    7.17    1.00
  WS02006232WS02006231 CONDUIT    497.89     0  03:07      1.35    1.04    1.00
  WS02006234WS02006232 CONDUIT    510.38     0  03:17      1.41    1.03    1.00
  WS02006235WS02006234 CONDUIT    575.84     0  03:17      1.63    6.08    1.00
  WS02006238WS02006235 CONDUIT    624.12     0  03:17      1.66    1.39    1.00
  WS02006239WS02006238 CONDUIT    597.68     0  03:17      1.56    1.91    1.00
  WS02006240WS02006239 CONDUIT    596.11     0  03:17      1.56    1.88    1.00
  WS02006242WS02006240 CONDUIT    633.22     0  03:16      1.75    2.51    1.00
  WS02006243WS02006242 CONDUIT    705.75     0  03:16      1.85    1.51    1.00
  WS02006245WS02006243 CONDUIT    733.34     0  03:16      1.98    2.17    1.00
  WS02006247WS02006245 CONDUIT    796.27     0  03:16      2.16    6.31    1.00
  WS02006248WS02006247 CONDUIT    860.65     0  03:16      2.24    1.87    1.00
  WS02006249WS02006248 CONDUIT    872.61     0  03:16      2.29    4.78    1.00
  WS02006251WS02006249 CONDUIT   1198.76     0  02:32      3.11    3.46    1.00
  WS02006252WS02006251 CONDUIT   1154.68     0  02:15     35.56    4.24    1.00
  WS02006253WS02006251 CONDUIT   1115.21     0  02:33      2.90    3.34    1.00
  WS02006256WS02006235 CONDUIT    288.93     0  00:00      4.23    3.06    1.00
  WS02006280WS02006229 CONDUIT   1827.31     0  02:26      4.27    0.39    1.00
  WS02006284WS02006280 CONDUIT   1822.49     0  02:26      2.96    0.76    1.00
  WS02006287WS02006284 CONDUIT   1819.12     0  02:26      2.72    0.84    1.00
  WSF200WS02003060     CONDUIT   1210.14     0  02:27      2.35    0.27    0.48
  YS02001580YS02001583 CONDUIT    102.82     0  02:26      0.67    0.40    1.00
  YS02001583YS02001586 CONDUIT    142.20     0  02:26      0.64    0.22    1.00
  YS02001586YS02001590 CONDUIT    241.49     0  02:27      1.28    0.42    1.00
  YS02001590YS02001593 CONDUIT    240.98     0  02:27      1.03    1.51    1.00
  YS02001593YS02001596 CONDUIT    240.93     0  02:27      1.67    0.38    1.00
  YS02001596YS02001600 CONDUIT    241.07     0  02:27      1.18    0.47    1.00
  YS02001600YS02001601 CONDUIT    241.53     0  02:27      0.85    0.42    1.00
  YS02001601YS02001602 CONDUIT    523.24     0  02:25      1.85    1.89    1.00
  YS02001602YS02001605 CONDUIT    524.50     0  02:25      1.86   11.10    1.00
  YS02001605YS02001607 CONDUIT    527.98     0  02:25      1.87    2.90    1.00
  YS02001607YS02001610 CONDUIT    529.38     0  02:25      0.67    0.50    1.00
  YS02001610YS02001613 CONDUIT    536.25     0  02:25      0.68    0.62    1.00
  YS02001613YS02001616 CONDUIT    543.59     0  02:25      0.70    0.47    1.00
  YS02001616YS02001619 CONDUIT    516.76     0  02:31      0.71    0.90    1.00
  YS02001619YS02001622 CONDUIT    901.87     0  02:26      1.23    1.33    1.00
  YS02001622YS02001625 CONDUIT    906.38     0  02:26      1.15    0.48    1.00
  YS02001625YS02001629 CONDUIT    906.87     0  02:26      1.16    0.43    1.00
  YS02001629YS02163301 CONDUIT    894.05     0  02:26      1.14    1.10    1.00
  YS02001633YS02163601 CONDUIT   1214.91     0  02:26      1.55    1.28    1.00
  YS02001641YS02001644 CONDUIT   1213.42     0  02:26      1.54    3.92    1.00
  YS02001644YS02001647 CONDUIT   1486.71     0  02:26      2.07    0.87    0.88
  YS02001647YS02001649 CONDUIT   1517.87     0  02:26      2.33    0.80    0.78
  YS02001649YS02001757 CONDUIT   1757.20     0  02:28      2.57    1.07    0.82
  YS02001652YS02001649 CONDUIT    345.48     0  02:28      0.67    0.17    0.74
  YS02001655YS02001652 CONDUIT    323.56     0  02:27      1.37    0.16    0.48
  YS02001658YS02001655 CONDUIT    280.66     0  02:25      1.93    0.12    0.30
  YS02001661YS02001658 CONDUIT    280.13     0  02:25      2.07    0.11    0.23
  YS02001664YS02001661 CONDUIT    279.40     0  02:25      1.85    0.09    0.25
  YS02001745YS02001748 CONDUIT    180.57     0  02:25      1.90    0.07    0.18
  YS02001748YS02001751 CONDUIT    181.36     0  02:25      1.59    0.09    0.20
  YS02001751YS02001754 CONDUIT    185.37     0  02:25      1.50    0.09    0.30
  YS02001754YS02001757 CONDUIT    216.62     0  02:29      0.48    0.09    0.64
  YS02001757CaochengTiaoxuchi CONDUIT   2276.04     0  02:28      4.12    0.99    0.71
  YS02001759YS02001757 CONDUIT    506.37     0  02:30      0.88    0.36    0.76
  YS02001762YS02001759 CONDUIT    346.48     0  02:30      0.62    0.40    0.69
  YS02001765YS02001762 CONDUIT    322.00     0  02:30      0.70    0.30    0.65
  YS02001767YS02001765 CONDUIT    304.43     0  02:29      0.79    0.38    0.62
  YS02001770YS02001767 CONDUIT    306.59     0  02:25      0.80    1.21    0.61
  YS02001774YS02001770 CONDUIT     50.68     0  02:28      0.13    0.03    0.64
  YS02001779YS02001774 CONDUIT     33.17     0  02:29      0.07    0.02    0.57
  YS02001783YS02001784 CONDUIT    848.23     0  02:28      1.71    1.17    0.96
  YS02001784YS02001785 CONDUIT    848.89     0  02:29      1.85    1.98    0.86
  YS02001786YS02001788 CONDUIT    849.26     0  02:29      2.28    1.64    0.69
  YS02001788YS02001790 CONDUIT    850.92     0  02:29      2.38    0.63    0.67
  YS02001790YS02001791 CONDUIT    893.13     0  02:30      2.97    0.97    0.58
  YS02001791YS02001793 CONDUIT    854.47     0  02:29      5.98    0.37    0.33
  YS02001793JiankangQianchi CONDUIT    854.58     0  02:29      1.92    0.07    0.59
  YS02001882YS02001884 CONDUIT     22.99     0  02:26      0.05    0.03    0.83
  YS02001884YS02001887 CONDUIT     49.61     0  02:26      0.07    0.07    0.93
  YS02001887YS02001890 CONDUIT    252.00     0  02:25      0.35    0.43    0.98
  YS02001890YS02001895 CONDUIT    239.76     0  02:25      0.36    0.11    0.89
  YS02001895YS02001898 CONDUIT    212.05     0  02:25      0.39    0.37    0.77
  YS02001898YS02001901 CONDUIT    209.38     0  02:28      0.36    0.14    0.85
  YS02001901YS02001904 CONDUIT    214.35     0  02:35      0.36    0.33    0.91
  YS02001904YS02001907 CONDUIT    230.74     0  02:34      0.32    0.08    0.95
  YS02001907YS02006553 CONDUIT    605.00     0  02:30      0.67    0.71    1.00
  YS02001910YS02001907 CONDUIT    402.98     0  02:30      0.51    0.23    1.00
  YS02001915YS02001910 CONDUIT    401.74     0  02:30      0.54    0.20    0.91
  YS02001918YS02001915 CONDUIT    176.20     0  02:32      0.46    0.10    0.65
  YS02001920YS02001918 CONDUIT    163.22     0  02:29      0.65    0.16    0.51
  YS02001923YS02001920 CONDUIT    153.63     0  02:30      0.74    0.07    0.41
  YS02001926YS02001923 CONDUIT    143.60     0  02:26      0.88    0.21    0.26
  YS02001929YS02001926 CONDUIT    144.24     0  02:26      0.97    0.07    0.24
  YS02006553YS02006556 CONDUIT    604.43     0  02:30      0.77    0.52    1.00
  YS02006556YS02006558 CONDUIT    607.03     0  02:30      0.77    0.48    1.00
  YS02006558YS02006561 CONDUIT    848.56     0  02:28      3.36    1.88    0.84
  YS02006561YS02001783 CONDUIT    849.87     0  02:28      2.15    0.44    0.74
  YS02163301YS02001633 CONDUIT    896.03     0  02:26      1.14    0.84    1.00
  YS02163601YS02164001 CONDUIT   1215.08     0  02:26      1.55    1.08    1.00
  YS02164001YS02001641 CONDUIT   1212.92     0  02:26      1.54    1.66    1.00
  YSB1154YSB6556       CONDUIT    160.13     0  02:26      0.42    0.29    1.00
  YSB1171HS02004479    CONDUIT    348.77     0  02:26      0.69    0.23    1.00
  YSB1174YSB1171       CONDUIT    137.73     0  02:26      0.36    0.21    1.00
  YSB6556YSB1171       CONDUIT    190.44     0  02:26      0.49    0.20    1.00
  CC-R1                PUMP      3415.00     0  01:50              5.00
  CC-R2                PUMP      3415.00     0  00:45              5.00
  CC-S1                PUMP      1000.00     0  00:05              5.00
  CC-S2                PUMP      1000.00     0  00:15              5.00
  JK-R1                PUMP      5000.00     0  02:25              5.00
  JK-R2                PUMP      5000.00     0  02:35              5.00
  JK-S                 PUMP      1500.00     0  00:20              5.00
  XR-1                 PUMP        95.00     0  00:00              1.00
  XR-2                 PUMP        95.00     0  00:00              1.00
  XR-3                 PUMP        95.00     0  00:00              1.00
  XR-4                 PUMP        95.00     0  00:00              1.00
  
  
  ***************************
  Flow Classification Summary
  ***************************
  
  -------------------------------------------------------------------------------------
                      Adjusted    ---------- Fraction of Time in Flow Class ---------- 
                       /Actual         Up    Down  Sub   Sup   Up    Down  Norm  Inlet 
  Conduit               Length    Dry  Dry   Dry   Crit  Crit  Crit  Crit  Ltd   Ctrl  
  -------------------------------------------------------------------------------------
  1                       1.00   0.00  0.00  0.00  0.00  1.00  0.00  0.00  0.33  0.00
  HS02004478WS02006287    1.00   0.14  0.00  0.00  0.57  0.30  0.00  0.00  0.66  0.00
  HS02004479HS02004480    1.00   0.05  0.00  0.00  0.95  0.00  0.00  0.00  0.13  0.00
  HS02004480HS02004478    1.00   0.12  0.00  0.00  0.47  0.00  0.00  0.42  0.00  0.00
  HS02004770HS02004777    1.00   0.00  0.11  0.00  0.89  0.00  0.00  0.00  0.04  0.00
  HS02004777HS02004785    1.00   0.00  0.00  0.00  1.00  0.00  0.00  0.00  0.16  0.00
  HS02004785HS02004788    1.00   0.00  0.00  0.00  1.00  0.00  0.00  0.00  0.00  0.00
  HS02004788HS02004792    1.00   0.00  0.00  0.00  0.99  0.01  0.00  0.00  0.96  0.00
  HS02004792HS02004799    1.00   0.00  0.00  0.00  0.99  0.01  0.00  0.00  0.94  0.00
  HS02004799HS02004480    1.00   0.00  0.05  0.00  0.86  0.00  0.09  0.00  0.00  0.00
  HS02004802HS02004478    1.00   0.12  0.01  0.00  0.88  0.00  0.00  0.00  0.03  0.00
  HS02004807HS02004802    1.00   0.11  0.00  0.00  0.88  0.00  0.00  0.01  0.00  0.00
  HS02004817HS02004807    1.00   0.00  0.11  0.00  0.89  0.00  0.00  0.00  0.01  0.00
  HS02004817HS02004824    1.00   0.00  0.00  0.00  1.00  0.00  0.00  0.00  0.91  0.00
  HS02004824HS02004830    1.00   0.00  0.00  0.00  1.00  0.00  0.00  0.00  0.01  0.00
  HS02004830HS02004837    1.00   0.00  0.00  0.00  1.00  0.00  0.00  0.00  0.95  0.00
  HS02004837HS02004842    1.00   0.00  0.00  0.00  0.99  0.01  0.00  0.00  0.11  0.00
  HS02004842HS02004848    1.00   0.00  0.11  0.00  0.89  0.00  0.00  0.00  0.64  0.00
  HS02004848HS02004852    1.00   0.11  0.00  0.00  0.89  0.00  0.00  0.00  0.69  0.00
  HS02004852HS02004856    1.00   0.11  0.01  0.00  0.88  0.00  0.00  0.00  0.77  0.00
  HS02004856HS02004862    1.00   0.00  0.16  0.00  0.84  0.00  0.00  0.00  0.76  0.00
  HS02004862HS02004870    1.00   0.00  0.00  0.00  1.00  0.00  0.00  0.00  0.06  0.00
  HS02004870HS02004876    1.00   0.01  0.00  0.00  0.99  0.00  0.00  0.00  0.97  0.00
  HS02004876HS02004881    1.00   0.01  0.00  0.00  0.82  0.17  0.00  0.00  0.00  0.00
  HS02004881HS02006253    1.00   0.00  0.01  0.00  0.26  0.05  0.00  0.68  0.09  0.00
  HS02004901HS02004770    1.00   0.11  0.00  0.00  0.89  0.00  0.00  0.00  0.01  0.00
  WS02001211WS02001212    1.00   0.00  0.03  0.00  0.97  0.00  0.00  0.00  0.00  0.00
  WS02001212WS02001213    1.00   0.03  0.00  0.00  0.35  0.00  0.61  0.00  0.00  0.00
  WS02001213WS02003059    1.00   0.00  0.00  0.00  0.99  0.00  0.00  0.00  0.00  0.00
  WS02003059WS02003060    1.00   0.00  0.00  0.00  1.00  0.00  0.00  0.00  0.03  0.00
  WS02003060WS02003069    1.00   0.00  0.00  0.00  0.98  0.02  0.00  0.00  0.59  0.00
  WS02003066WSF200        1.00   0.06  0.00  0.00  0.00  0.94  0.00  0.00  0.81  0.00
  WS02003067WS02003066    1.00   0.06  0.00  0.00  0.94  0.00  0.00  0.00  0.00  0.00
  WS02003069WS02003072    1.00   0.00  0.00  0.00  1.00  0.00  0.00  0.00  0.77  0.00
  WS02003072WS02003073    1.00   0.00  0.00  0.00  0.00  0.00  0.00  1.00  0.00  0.00
  WS02004138WS02004139    1.00   0.00  0.00  0.00  0.96  0.02  0.00  0.02  0.98  0.00
  WS02004139WS02001211    1.00   0.00  0.00  0.00  0.99  0.00  0.00  0.00  0.00  0.00
  WS02004401WS02004402    1.00   0.02  0.00  0.00  0.97  0.00  0.00  0.00  0.00  0.00
  WS02004402WS02004403    1.00   0.03  0.00  0.00  0.97  0.00  0.00  0.00  0.00  0.00
  WS02004403WS02004404    1.00   0.00  0.03  0.00  0.97  0.00  0.00  0.00  0.00  0.00
  WS02004404WS02004405    1.00   0.00  0.00  0.00  1.00  0.00  0.00  0.00  0.00  0.00
  WS02004405WS02004406    1.00   0.00  0.00  0.00  1.00  0.00  0.00  0.00  0.00  0.00
  WS02004406WS02004407    1.00   0.00  0.04  0.00  0.96  0.00  0.00  0.00  0.00  0.00
  WS02004407WS02004409    1.00   0.04  0.00  0.00  0.95  0.01  0.00  0.00  0.92  0.00
  WS02004409WS02004410    1.00   0.04  0.00  0.00  0.95  0.00  0.00  0.00  0.00  0.00
  WS02004410WS02004411    1.00   0.04  0.00  0.00  0.95  0.00  0.00  0.00  0.00  0.00
  WS02004411WS02004412    1.00   0.05  0.00  0.00  0.95  0.00  0.00  0.00  0.00  0.00
  WS02004412WS02004413    1.00   0.05  0.00  0.00  0.95  0.00  0.00  0.00  0.00  0.00
  WS02004413WS02003067    1.00   0.05  0.01  0.00  0.00  0.00  0.94  0.00  0.00  0.00
  WS02006109WS02006110    1.00   0.00  0.01  0.00  0.98  0.00  0.01  0.00  0.00  0.00
  WS02006110WS02006113    1.00   0.01  0.01  0.00  0.98  0.00  0.00  0.00  0.00  0.00
  WS02006111WS02006112    1.00   0.02  0.00  0.00  0.97  0.00  0.00  0.00  0.88  0.00
  WS02006112WS02006115    1.00   0.02  0.00  0.00  0.97  0.00  0.01  0.00  0.00  0.00
  WS02006113WS02006111    1.00   0.02  0.00  0.00  0.16  0.82  0.00  0.00  0.08  0.00
  WS02006115WS02006116    1.00   0.02  0.00  0.00  0.96  0.00  0.00  0.01  0.00  0.00
  WS02006116WS02004401    1.00   0.02  0.00  0.00  0.98  0.00  0.00  0.00  0.00  0.00
  WS02006228WS02006109    1.00   0.00  0.00  0.00  1.00  0.00  0.00  0.00  0.00  0.00
  WS02006229WS02006228    1.00   0.00  0.00  0.00  0.99  0.00  0.00  0.01  0.00  0.00
  WS02006230WS02006229    1.00   0.00  0.00  0.00  0.98  0.00  0.00  0.02  0.03  0.00
  WS02006231WS02006230    1.00   0.00  0.00  0.00  0.41  0.00  0.58  0.00  0.00  0.00
  WS02006232WS02006231    1.00   0.00  0.00  0.00  0.99  0.00  0.00  0.00  0.00  0.00
  WS02006234WS02006232    1.00   0.00  0.00  0.00  1.00  0.00  0.00  0.00  0.10  0.00
  WS02006235WS02006234    1.00   0.00  0.00  0.00  0.76  0.00  0.24  0.00  0.00  0.00
  WS02006238WS02006235    1.00   0.00  0.00  0.00  1.00  0.00  0.00  0.00  0.00  0.00
  WS02006239WS02006238    1.00   0.00  0.00  0.00  1.00  0.00  0.00  0.00  0.32  0.00
  WS02006240WS02006239    1.00   0.00  0.00  0.00  0.61  0.00  0.00  0.39  0.02  0.00
  WS02006242WS02006240    1.00   0.00  0.00  0.00  0.99  0.00  0.00  0.00  0.00  0.00
  WS02006243WS02006242    1.00   0.00  0.00  0.00  0.99  0.00  0.00  0.00  0.76  0.00
  WS02006245WS02006243    1.00   0.00  0.00  0.00  0.89  0.00  0.00  0.11  0.00  0.00
  WS02006247WS02006245    1.00   0.00  0.00  0.00  0.98  0.00  0.00  0.01  0.00  0.00
  WS02006248WS02006247    1.00   0.00  0.00  0.00  0.99  0.00  0.00  0.01  0.74  0.00
  WS02006249WS02006248    1.00   0.00  0.00  0.00  0.49  0.00  0.51  0.00  0.00  0.00
  WS02006251WS02006249    1.00   0.00  0.00  0.00  0.99  0.01  0.00  0.00  0.72  0.00
  WS02006252WS02006251    1.00   0.55  0.16  0.00  0.18  0.01  0.10  0.00  0.03  0.00
  WS02006253WS02006251    1.00   0.00  0.00  0.00  1.00  0.00  0.00  0.00  0.01  0.00
  WS02006256WS02006235    1.00   0.00  0.00  0.00  0.99  0.01  0.00  0.00  0.00  0.00
  WS02006280WS02006229    1.00   0.12  0.00  0.00  0.10  0.05  0.00  0.73  0.01  0.00
  WS02006284WS02006280    1.00   0.12  0.00  0.00  0.08  0.01  0.00  0.79  0.00  0.00
  WS02006287WS02006284    1.00   0.10  0.04  0.00  0.44  0.42  0.00  0.00  0.71  0.00
  WSF200WS02003060        1.00   0.00  0.06  0.00  0.61  0.33  0.00  0.00  0.76  0.00
  YS02001580YS02001583    1.00   0.31  0.44  0.00  0.25  0.00  0.00  0.00  0.67  0.00
  YS02001583YS02001586    1.00   0.37  0.32  0.00  0.30  0.00  0.00  0.00  0.68  0.00
  YS02001586YS02001590    1.00   0.11  0.00  0.00  0.51  0.04  0.00  0.34  0.34  0.00
  YS02001590YS02001593    1.00   0.11  0.01  0.00  0.07  0.00  0.81  0.00  0.00  0.00
  YS02001593YS02001596    1.00   0.12  0.00  0.00  0.09  0.01  0.00  0.78  0.01  0.00
  YS02001596YS02001600    1.00   0.12  0.00  0.00  0.19  0.03  0.00  0.66  0.04  0.00
  YS02001600YS02001601    1.00   0.12  0.01  0.00  0.88  0.00  0.00  0.00  0.69  0.00
  YS02001601YS02001602    1.00   0.11  0.01  0.00  0.88  0.00  0.00  0.00  0.00  0.00
  YS02001602YS02001605    1.00   0.12  0.00  0.00  0.88  0.00  0.00  0.00  0.00  0.00
  YS02001605YS02001607    1.00   0.12  0.00  0.00  0.88  0.00  0.00  0.00  0.01  0.00
  YS02001607YS02001610    1.00   0.12  0.01  0.00  0.88  0.00  0.00  0.00  0.03  0.00
  YS02001610YS02001613    1.00   0.11  0.00  0.00  0.89  0.00  0.00  0.00  0.02  0.00
  YS02001613YS02001616    1.00   0.11  0.00  0.00  0.89  0.00  0.00  0.00  0.01  0.00
  YS02001616YS02001619    1.00   0.11  0.00  0.00  0.89  0.00  0.00  0.00  0.00  0.00
  YS02001619YS02001622    1.00   0.11  0.00  0.00  0.89  0.00  0.00  0.00  0.37  0.00
  YS02001622YS02001625    1.00   0.11  0.00  0.00  0.89  0.00  0.00  0.00  0.09  0.00
  YS02001625YS02001629    1.00   0.11  0.05  0.00  0.12  0.00  0.71  0.00  0.00  0.00
  YS02001629YS02163301    1.00   0.14  0.01  0.00  0.85  0.00  0.00  0.00  0.00  0.00
  YS02001633YS02163601    1.00   0.00  0.01  0.00  0.99  0.00  0.00  0.00  0.17  0.00
  YS02001641YS02001644    1.00   0.00  0.01  0.00  0.99  0.00  0.00  0.00  0.00  0.00
  YS02001644YS02001647    1.00   0.00  0.17  0.00  0.83  0.00  0.00  0.00  0.00  0.00
  YS02001647YS02001649    1.00   0.00  0.17  0.00  0.40  0.43  0.00  0.00  0.61  0.00
  YS02001649YS02001757    1.00   0.00  0.00  0.00  0.53  0.47  0.00  0.00  0.64  0.00
  YS02001652YS02001649    1.00   0.00  0.00  0.00  0.97  0.03  0.00  0.00  0.85  0.00
  YS02001655YS02001652    1.00   0.00  0.00  0.00  0.14  0.03  0.00  0.83  0.06  0.00
  YS02001658YS02001655    1.00   0.00  0.13  0.00  0.43  0.45  0.00  0.00  0.79  0.00
  YS02001661YS02001658    1.00   0.13  0.00  0.00  0.32  0.56  0.00  0.00  0.76  0.00
  YS02001664YS02001661    1.00   0.11  0.00  0.00  0.75  0.14  0.00  0.00  0.87  0.00
  YS02001745YS02001748    1.00   0.00  0.00  0.00  0.00  0.00  0.00  1.00  0.00  0.00
  YS02001748YS02001751    1.00   0.00  0.00  0.00  0.62  0.38  0.00  0.00  0.87  0.00
  YS02001751YS02001754    1.00   0.00  0.00  0.00  0.07  0.01  0.00  0.92  0.04  0.00
  YS02001754YS02001757    1.00   0.00  0.00  0.00  1.00  0.00  0.00  0.00  0.95  0.00
  YS02001757CaochengTiaoxuchi    1.00   0.00  0.00  0.00  0.84  0.16  0.00  0.00  0.97  0.00
  YS02001759YS02001757    1.00   0.00  0.00  0.00  1.00  0.00  0.00  0.00  0.69  0.00
  YS02001762YS02001759    1.00   0.00  0.00  0.00  1.00  0.00  0.00  0.00  0.08  0.00
  YS02001765YS02001762    1.00   0.00  0.00  0.00  1.00  0.00  0.00  0.00  0.83  0.00
  YS02001767YS02001765    1.00   0.00  0.00  0.00  1.00  0.00  0.00  0.00  0.00  0.00
  YS02001770YS02001767    1.00   0.00  0.00  0.00  1.00  0.00  0.00  0.00  0.00  0.00
  YS02001774YS02001770    1.00   0.00  0.12  0.00  0.69  0.00  0.19  0.00  0.06  0.00
  YS02001779YS02001774    1.00   0.00  0.00  0.00  1.00  0.00  0.00  0.00  0.89  0.00
  YS02001783YS02001784    1.00   0.00  0.18  0.00  0.82  0.00  0.00  0.00  0.59  0.00
  YS02001784YS02001785    1.00   0.00  0.00  0.00  1.00  0.00  0.00  0.00  0.22  0.00
  YS02001786YS02001788    1.00   0.00  0.00  0.00  0.63  0.37  0.00  0.00  0.00  0.00
  YS02001788YS02001790    1.00   0.00  0.00  0.00  0.19  0.81  0.00  0.00  0.90  0.00
  YS02001790YS02001791    1.00   0.00  0.00  0.00  0.02  0.98  0.00  0.00  0.13  0.00
  YS02001791YS02001793    1.00   0.00  0.00  0.00  0.00  1.00  0.00  0.00  0.00  0.00
  YS02001793JiankangQianchi    1.00   0.00  0.00  0.00  1.00  0.00  0.00  0.00  1.00  0.00
  YS02001882YS02001884    1.00   0.14  0.01  0.00  0.85  0.00  0.00  0.00  0.00  0.00
  YS02001884YS02001887    1.00   0.07  0.03  0.00  0.89  0.00  0.00  0.00  0.00  0.00
  YS02001887YS02001890    1.00   0.00  0.00  0.00  0.96  0.00  0.04  0.00  0.00  0.00
  YS02001890YS02001895    1.00   0.00  0.15  0.00  0.84  0.00  0.00  0.00  0.00  0.00
  YS02001895YS02001898    1.00   0.16  0.00  0.00  0.82  0.00  0.02  0.00  0.00  0.00
  YS02001898YS02001901    1.00   0.15  0.01  0.00  0.84  0.00  0.00  0.00  0.01  0.00
  YS02001901YS02001904    1.00   0.15  0.00  0.00  0.85  0.00  0.00  0.00  0.00  0.00
  YS02001904YS02001907    1.00   0.00  0.15  0.00  0.85  0.00  0.00  0.00  0.00  0.00
  YS02001907YS02006553    1.00   0.00  0.02  0.00  0.97  0.00  0.00  0.00  0.00  0.00
  YS02001910YS02001907    1.00   0.00  0.00  0.00  0.96  0.01  0.00  0.03  0.13  0.00
  YS02001915YS02001910    1.00   0.00  0.00  0.00  0.97  0.03  0.00  0.00  0.21  0.00
  YS02001918YS02001915    1.00   0.00  0.01  0.00  0.97  0.03  0.00  0.00  0.82  0.00
  YS02001920YS02001918    1.00   0.00  0.01  0.00  0.99  0.00  0.00  0.00  0.00  0.00
  YS02001923YS02001920    1.00   0.00  0.00  0.00  1.00  0.00  0.00  0.00  0.99  0.00
  YS02001926YS02001923    1.00   0.00  0.08  0.00  0.00  0.00  0.92  0.00  0.00  0.00
  YS02001929YS02001926    1.00   0.00  0.11  0.00  0.89  0.00  0.00  0.00  0.87  0.00
  YS02006553YS02006556    1.00   0.01  0.00  0.00  0.99  0.00  0.00  0.00  0.03  0.00
  YS02006556YS02006558    1.00   0.00  0.00  0.00  1.00  0.00  0.00  0.00  0.00  0.00
  YS02006558YS02006561    1.00   0.18  0.00  0.00  0.00  0.82  0.00  0.00  0.17  0.00
  YS02006561YS02001783    1.00   0.18  0.00  0.00  0.05  0.78  0.00  0.00  0.72  0.00
  YS02163301YS02001633    1.00   0.00  0.14  0.00  0.86  0.00  0.00  0.00  0.00  0.00
  YS02163601YS02164001    1.00   0.00  0.09  0.00  0.91  0.00  0.00  0.00  0.00  0.00
  YS02164001YS02001641    1.00   0.01  0.08  0.00  0.91  0.00  0.00  0.00  0.06  0.00
  YSB1154YSB6556          1.00   0.11  0.00  0.00  0.89  0.00  0.00  0.00  0.02  0.00
  YSB1171HS02004479       1.00   0.05  0.00  0.00  0.93  0.00  0.00  0.01  0.11  0.00
  YSB1174YSB1171          1.00   0.06  0.03  0.00  0.91  0.00  0.00  0.00  0.00  0.00
  YSB6556YSB1171          1.00   0.05  0.06  0.00  0.89  0.00  0.00  0.00  0.00  0.00
  
  
  *************************
  Conduit Surcharge Summary
  *************************
  
  ----------------------------------------------------------------------------
                                                           Hours        Hours 
                         --------- Hours Full --------   Above Full   Capacity
  Conduit                Both Ends  Upstream  Dnstream   Normal Flow   Limited
  ----------------------------------------------------------------------------
  HS02004478WS02006287        0.02      0.02      0.17      0.01         0.01
  HS02004479HS02004480        0.18      0.18      0.20      0.01         0.01
  HS02004480HS02004478        0.12      0.18      0.12      0.95         0.12
  HS02004770HS02004777        0.11      0.11      0.11      0.09         0.05
  HS02004777HS02004785        0.07      0.07      0.11      0.01         0.01
  HS02004785HS02004788        0.06      0.07      0.06      0.65         0.06
  HS02004788HS02004792        0.06      0.06      0.15      0.01         0.01
  HS02004792HS02004799        0.15      0.15      0.23      0.01         0.01
  HS02004799HS02004480        0.18      0.18      0.23      0.28         0.01
  HS02004802HS02004478        0.13      0.13      0.18      0.01         0.01
  HS02004807HS02004802        0.16      0.16      0.18      0.01         0.01
  HS02004817HS02004807        0.16      0.16      0.50      0.01         0.01
  HS02004817HS02004824        0.05      0.05      0.50      0.01         0.01
  HS02004824HS02004830        0.01      0.01      0.05      0.01         0.01
  HS02004830HS02004837        0.01      0.01      0.01      0.01         0.01
  HS02004837HS02004842        0.01      0.01      0.11      0.01         0.01
  HS02004842HS02004848        0.01      0.01      0.11      0.01         0.01
  HS02004870HS02004876        0.01      0.01      0.04      0.01         0.01
  HS02004876HS02004881        0.01      0.04      0.01      0.67         0.01
  HS02004881HS02006253        0.01      0.01      0.63      0.01         0.01
  HS02004901HS02004770        0.11      0.11      0.12      0.01         0.01
  WS02003072WS02003073        0.01      0.01      0.01      1.48         0.01
  WS02004401WS02004402        0.70      0.70      0.71      0.54         0.56
  WS02004402WS02004403        0.71      0.71      0.72      0.70         0.68
  WS02004403WS02004404        0.72      0.72      0.82      0.01         0.01
  WS02004404WS02004405        0.78      0.82      0.78      2.25         0.78
  WS02004405WS02004406        0.77      0.78      0.77      1.00         0.76
  WS02004406WS02004407        0.01      0.01      0.77      0.01         0.01
  WS02004407WS02004409        0.01      0.01      0.36      0.01         0.01
  WS02004409WS02004410        0.35      0.36      0.35      0.63         0.35
  WS02004410WS02004411        0.32      0.35      0.32      0.68         0.32
  WS02004411WS02004412        0.25      0.32      0.25      0.70         0.25
  WS02004412WS02004413        0.25      0.25      0.50      0.01         0.01
  WS02004413WS02003067        0.01      0.01      0.50      0.01         0.01
  WS02006109WS02006110        0.94      0.94      1.30      0.95         0.01
  WS02006110WS02006113        0.49      0.49      1.27      0.01         0.01
  WS02006111WS02006112        0.48      0.48      1.40      0.01         0.01
  WS02006112WS02006115        0.63      0.63      1.02      0.01         0.01
  WS02006113WS02006111        0.48      0.49      0.48      0.53         0.48
  WS02006115WS02006116        0.64      0.64      0.65      0.62         0.62
  WS02006116WS02004401        0.70      0.70      0.70      0.68         0.67
  WS02006228WS02006109        1.22      1.30      1.22      1.64         1.22
  WS02006229WS02006228        1.20      1.23      1.20      1.50         1.20
  WS02006230WS02006229        1.35      1.39      1.35      1.99         0.86
  WS02006231WS02006230        0.78      0.78      0.82      1.60         0.39
  WS02006232WS02006231        0.80      0.80      1.08      0.01         0.04
  WS02006234WS02006232        0.89      0.89      1.08      0.01         0.01
  WS02006235WS02006234        0.85      0.86      0.90      1.47         0.37
  WS02006238WS02006235        0.92      0.92      1.01      0.08         0.11
  WS02006239WS02006238        0.90      0.94      0.94      0.47         0.13
  WS02006240WS02006239        0.83      0.87      0.84      0.47         0.11
  WS02006242WS02006240        0.84      0.85      0.96      0.65         0.33
  WS02006243WS02006242        0.83      0.85      0.91      0.06         0.03
  WS02006245WS02006243        0.80      0.82      0.82      0.21         0.13
  WS02006247WS02006245        0.80      0.83      0.80      1.18         0.39
  WS02006248WS02006247        0.77      0.78      0.82      0.10         0.07
  WS02006249WS02006248        0.76      0.76      0.78      0.49         0.01
  WS02006251WS02006249        0.76      0.81      0.78      0.63         0.47
  WS02006252WS02006251        0.73      6.88      0.81      0.56         0.01
  WS02006253WS02006251        0.77      0.80      0.81      0.33         0.05
  WS02006256WS02006235        1.72      1.73      5.64      0.16         0.01
  WS02006280WS02006229        0.26      0.26      0.35      0.01         0.01
  WS02006284WS02006280        0.19      0.19      0.25      0.01         0.01
  WS02006287WS02006284        0.12      0.12      0.20      0.01         0.01
  YS02001580YS02001583        0.01      0.01      0.02      0.01         0.01
  YS02001583YS02001586        0.01      0.01      0.14      0.01         0.01
  YS02001586YS02001590        0.15      0.15      0.20      0.01         0.01
  YS02001590YS02001593        0.20      0.20      0.21      0.20         0.01
  YS02001593YS02001596        0.21      0.21      0.27      0.01         0.01
  YS02001596YS02001600        0.30      0.30      0.36      0.01         0.01
  YS02001600YS02001601        0.40      0.40      0.60      0.01         0.01
  YS02001601YS02001602        0.52      0.52      0.64      0.37         0.01
  YS02001602YS02001605        0.48      0.48      0.52      1.42         0.01
  YS02001605YS02001607        0.45      0.48      0.45      0.57         0.45
  YS02001607YS02001610        0.15      0.15      0.17      0.01         0.01
  YS02001610YS02001613        0.14      0.14      0.17      0.01         0.01
  YS02001613YS02001616        0.11      0.11      0.14      0.01         0.01
  YS02001616YS02001619        0.10      0.10      0.11      0.01         0.01
  YS02001619YS02001622        0.09      0.10      0.09      0.22         0.09
  YS02001622YS02001625        0.09      0.09      0.23      0.01         0.01
  YS02001625YS02001629        0.01      0.01      0.23      0.01         0.01
  YS02001629YS02163301        0.22      0.22      0.23      0.13         0.11
  YS02001633YS02163601        0.24      0.24      0.26      0.16         0.16
  YS02001641YS02001644        0.12      0.17      0.12      0.68         0.12
  YS02001644YS02001647        0.01      0.01      0.12      0.01         0.01
  YS02001649YS02001757        0.01      0.01      0.01      0.02         0.01
  YS02001770YS02001767        0.01      0.01      0.01      0.13         0.01
  YS02001783YS02001784        0.01      0.01      0.01      0.18         0.01
  YS02001784YS02001785        0.01      0.01      0.01      0.32         0.01
  YS02001786YS02001788        0.01      0.01      0.01      0.25         0.01
  YS02001793JiankangQianchi        0.01      0.01      3.95      0.01         0.01
  YS02001890YS02001895        0.01      0.01      0.06      0.01         0.01
  YS02001904YS02001907        0.01      0.01      0.23      0.01         0.01
  YS02001907YS02006553        0.32      0.32      0.36      0.01         0.01
  YS02001910YS02001907        0.05      0.05      0.23      0.01         0.01
  YS02001915YS02001910        0.01      0.01      0.05      0.01         0.01
  YS02006553YS02006556        0.16      0.16      0.23      0.01         0.01
  YS02006556YS02006558        0.20      0.20      0.24      0.01         0.01
  YS02006558YS02006561        0.01      0.15      0.01      0.29         0.01
  YS02163301YS02001633        0.23      0.23      0.25      0.01         0.01
  YS02163601YS02164001        0.18      0.18      0.26      0.06         0.01
  YS02164001YS02001641        0.17      0.18      0.17      0.30         0.17
  YSB1154YSB6556              0.22      0.22      0.30      0.01         0.01
  YSB1171HS02004479           0.14      0.14      0.30      0.01         0.01
  YSB1174YSB1171              0.26      0.26      0.44      0.01         0.01
  YSB6556YSB1171              0.22      0.22      0.55      0.01         0.01
  
  
  ***************
  Pumping Summary
  ***************
  
  ---------------------------------------------------------------------------------------------------------
                                                  Min       Avg       Max     Total     Power    % Time Off
                        Percent   Number of      Flow      Flow      Flow    Volume     Usage    Pump Curve
  Pump                 Utilized   Start-Ups       LPS       LPS       LPS  10^6 ltr     Kw-hr    Low   High
  ---------------------------------------------------------------------------------------------------------
  CC-R1                    1.68          14      0.00   2071.39   3415.00     0.832     13.76    0.0  100.0
  CC-R2                    3.29          23      0.00   2937.56   3415.00     2.418     39.88    0.0  100.0
  CC-S1                    3.67          18      0.00    853.06   1000.00     0.816      7.96    0.0    0.0
  CC-S2                    4.69          17      0.00    908.05   1000.00     1.111     10.95    0.0    0.0
  JK-R1                    0.71           9      0.00   3347.11   5000.00     0.678      5.50    0.0    0.0
  JK-R2                    0.38           5      0.00   3707.69   5000.00     0.353      2.70    0.0    0.0
  JK-S                     2.90          23      0.00    765.83   1500.00     0.709     13.08    0.0    0.0
  XR-1                    97.90           2      0.00     95.00     95.00     2.679      9.62    0.0    0.0
  XR-2                    93.96           2      0.00     95.00     95.00     2.571      8.79    0.0    0.0
  XR-3                     0.00           1      0.00     95.00     95.00     0.000      0.00    0.0    0.0
  XR-4                     0.00           1      0.00     95.00     95.00     0.000      0.00    0.0    0.0
  

  Analysis begun on:  Thu Jul 13 10:45:57 2023
  Analysis ended on:  Thu Jul 13 10:46:08 2023
  Total elapsed time: 00:00:11