
  OWA STORM WATER MANAGEMENT MODEL - VERSION v5.1.14 (OWA 2022-07-31)
  --------------------------------------------------------------

  WARNING 04: minimum elevation drop used for Conduit WS02004404WS02004405
  WARNING 03: negative offset ignored for Link YS02001904YS02001907
  
  *********************************************************
  NOTE: The summary statistics displayed in this report are
  based on results found at every computational time step,  
  not just on results from each reporting time step.
  *********************************************************
  
  ****************
  Analysis Options
  ****************
  Flow Units ............... LPS
  Process Models:
    Rainfall/Runoff ........ YES
    RDII ................... NO
    Snowmelt ............... NO
    Groundwater ............ NO
    Flow Routing ........... YES
    Ponding Allowed ........ NO
    Water Quality .......... NO
  Infiltration Method ...... HORTON
  Flow Routing Method ...... DYNWAVE
  Surcharge Method ......... EXTRAN
  Starting Date ............ 08/28/2015 08:00:00
  Ending Date .............. 08/28/2015 16:00:00
  Antecedent Dry Days ...... 8.0
  Report Time Step ......... 00:01:00
  Wet Time Step ............ 00:01:00
  Dry Time Step ............ 00:01:00
  Routing Time Step ........ 30.00 sec
  Variable Time Step ....... YES
  Maximum Trials ........... 8
  Number of Threads ........ 2
  Head Tolerance ........... 0.001500 m
  
  
  **************************        Volume         Depth
  Runoff Quantity Continuity     hectare-m            mm
  **************************     ---------       -------
  Initial LID Storage ......         0.072         1.184
  Total Precipitation ......         3.611        59.602
  Evaporation Loss .........         0.000         0.000
  Infiltration Loss ........         0.208         3.429
  Surface Runoff ...........         2.747        45.353
  Final Storage ............         0.729        12.027
  Continuity Error (%) .....        -0.036
  
  
  **************************        Volume        Volume
  Flow Routing Continuity        hectare-m      10^6 ltr
  **************************     ---------     ---------
  Dry Weather Inflow .......         0.630         6.296
  Wet Weather Inflow .......         2.748        27.477
  Groundwater Inflow .......         0.000         0.000
  RDII Inflow ..............         0.000         0.000
  External Inflow ..........         0.105         1.045
  External Outflow .........         2.078        20.782
  Flooding Loss ............         1.188        11.884
  Evaporation Loss .........         0.000         0.000
  Exfiltration Loss ........         0.000         0.000
  Initial Stored Volume ....         0.303         3.031
  Final Stored Volume ......         0.521         5.210
  Continuity Error (%) .....        -0.075
  
  
  *************************
  Highest Continuity Errors
  *************************
  Node YS02001884 (4.92%)
  Node YS02001774 (3.97%)
  Node YS02001583 (-3.65%)
  Node HS02004842 (1.82%)
  Node HS02004817 (1.09%)
  
  
  ***************************
  Time-Step Critical Elements
  ***************************
  Link WS02006252WS02006251 (65.67%)
  Link WS02006280WS02006229 (15.77%)
  Link WS02006238WS02006235 (4.59%)
  Link YS02001791YS02001793 (3.28%)
  Link YS02006556YS02006558 (1.41%)
  
  
  ********************************
  Highest Flow Instability Indexes
  ********************************
  Link WS02006113WS02006111 (19)
  Link WS02006111WS02006112 (15)
  Link WS02004404WS02004405 (14)
  Link WS02006256WS02006235 (14)
  Link WS02006238WS02006235 (13)
  
  
  *************************
  Routing Time Step Summary
  *************************
  Minimum Time Step           :     0.00 sec
  Average Time Step           :     1.99 sec
  Maximum Time Step           :     6.46 sec
  Percent in Steady State     :    -0.00
  Average Iterations per Step :     2.89
  Percent Not Converging      :     8.41
  
  
  ***************************
  Subcatchment Runoff Summary
  ***************************
  
  ------------------------------------------------------------------------------------------------------------------------------
                            Total      Total      Total      Total     Imperv       Perv      Total       Total     Peak  Runoff
                           Precip      Runon       Evap      Infil     Runoff     Runoff     Runoff      Runoff   Runoff   Coeff
  Subcatchment                 mm         mm         mm         mm         mm         mm         mm    10^6 ltr      LPS
  ------------------------------------------------------------------------------------------------------------------------------
  sub0                      59.60       0.00       0.00       1.00      54.18       3.17      57.35        0.05    31.42   0.962
  sub1                      59.60       0.00       0.00       1.53      46.43       4.35      50.78        0.34   202.30   0.852
  sub10                     59.60       0.00       0.00       0.97      43.51       2.91      46.42        0.51   315.47   0.779
  sub11                     59.60       0.00       0.00       0.88      40.44       2.72      43.16        0.50   323.56   0.724
  sub12                     59.60       0.00       0.00       1.55      41.11       4.74      45.85        0.40   270.98   0.769
  sub14                     59.60       0.00       0.00       0.96      38.30       2.92      41.21        0.39   250.61   0.691
  sub15                     59.60       0.00       0.00       4.43      34.43      10.67      45.11        0.78   461.42   0.757
  sub16                     59.60       0.00       0.00       4.69      33.58      12.24      45.83        0.48   308.63   0.769
  sub17                     59.60       0.00       0.00       5.03      37.07      12.83      49.89        0.43   269.44   0.837
  sub2                      59.60       0.00       0.00       7.02      33.94      13.40      47.34        0.44   224.31   0.794
  sub22                     59.60       0.00       0.00       7.88      32.14      16.94      49.09        3.10  1742.12   0.824
  sub23                     59.60       0.00       0.00       5.91      33.10      13.99      47.08        2.25  1347.50   0.790
  sub3                      59.60       0.00       0.00       7.51      33.61      12.73      46.33        1.04   487.16   0.777
  sub4                      59.60       0.00       0.00       1.68      45.72       4.12      49.84        1.04   515.59   0.836
  sub5                      59.60       0.00       0.00       0.86      44.92       2.60      47.51        0.54   325.89   0.797
  sub60                     59.60       0.00       0.00       1.38      39.55       4.14      43.69        0.57   373.92   0.733
  sub61                     59.60       0.00       0.00       2.13      39.52       6.15      45.67        0.84   547.32   0.766
  sub62                     59.60       0.00       0.00       0.94      42.13       2.81      44.94        1.23   754.76   0.754
  sub63                     59.60       0.00       0.00       3.93      33.85      10.22      44.07        1.00   632.69   0.739
  sub64                     59.60       0.00       0.00       1.88      38.54       5.08      43.62        1.05   621.92   0.732
  sub65                     59.60       0.00       0.00       1.73      41.59       4.64      46.23        1.27   728.49   0.776
  sub66                     59.60       0.00       0.00       4.62      32.72       9.08      41.81        1.95   979.72   0.701
  sub67                     59.60       0.00       0.00       0.93      43.19       2.91      46.10        0.86   572.98   0.774
  sub68                     59.60       0.00       0.00       1.64      38.14       4.72      42.87        1.18   749.99   0.719
  sub69                     59.60       0.00       0.00       1.51      40.07       5.57      45.64        1.69   941.13   0.766
  sub7                      59.60       0.00       0.00       1.02      41.05       3.13      44.18        0.15    97.35   0.741
  sub70                     59.60       0.00       0.00       5.11      32.10      11.48      43.57        1.26   568.40   0.731
  sub71                     59.60       0.00       0.00       0.87      38.27       2.54      40.81        1.07   626.40   0.685
  sub72                     59.60       0.00       0.00       0.83      41.33       2.36      43.69        0.60   326.29   0.733
  sub8                      59.60       0.00       0.00       1.00      39.89       3.04      42.93        0.27   175.94   0.720
  sub9                      59.60       0.00       0.00       0.97      38.67       2.94      41.62        0.20   128.23   0.698
  

  ***********************
  LID Performance Summary
  ***********************

  --------------------------------------------------------------------------------------------------------------------
                                         Total      Evap     Infil   Surface    Drain    Initial     Final  Continuity
                                        Inflow      Loss      Loss   Outflow   Outflow   Storage   Storage       Error
  Subcatchment      LID Control             mm        mm        mm        mm        mm        mm        mm           %
  --------------------------------------------------------------------------------------------------------------------
  sub1              GreenRoof            59.60      0.00      0.00      0.00      0.00      7.05     66.73       -0.11
  sub10             GreenRoof            59.60      0.00      0.00      0.00      0.00      7.05     66.73       -0.11
  sub11             GreenRoof            59.60      0.00      0.00      0.00      0.00      7.05     66.73       -0.11
  sub12             GreenRoof            59.60      0.00      0.00      0.00      0.00      7.05     66.73       -0.11
  sub14             GreenRoof            59.60      0.00      0.00      0.00      0.00      7.05     66.73       -0.11
  sub15             GreenRoof            59.60      0.00      0.00      0.00      0.00      7.05     66.73       -0.11
  sub16             GreenRoof            59.60      0.00      0.00      0.00      0.00      7.05     66.73       -0.11
  sub17             GreenRoof            59.60      0.00      0.00      0.00      0.00      7.05     66.73       -0.11
  sub2              GreenRoof            59.60      0.00      0.00      0.00      0.00      7.05     66.73       -0.11
  sub22             GreenRoof            59.60      0.00      0.00      0.00      0.00      7.05     66.73       -0.11
  sub23             GreenRoof            59.60      0.00      0.00      0.00      0.00      7.05     66.73       -0.11
  sub3              GreenRoof            59.60      0.00      0.00      0.00      0.00      7.05     66.73       -0.11
  sub4              GreenRoof            59.60      0.00      0.00      0.00      0.00      7.05     66.73       -0.11
  sub5              GreenRoof            59.60      0.00      0.00      0.00      0.00      7.05     66.73       -0.11
  sub60             GreenRoof            59.60      0.00      0.00      0.00      0.00      7.05     66.73       -0.11
  sub61             GreenRoof            59.60      0.00      0.00      0.00      0.00      7.05     66.73       -0.11
  sub62             GreenRoof            59.60      0.00      0.00      0.00      0.00      7.05     66.73       -0.11
  sub63             GreenRoof            59.60      0.00      0.00      0.00      0.00      7.05     66.73       -0.11
  sub64             GreenRoof            59.60      0.00      0.00      0.00      0.00      7.05     66.73       -0.11
  sub65             GreenRoof            59.60      0.00      0.00      0.00      0.00      7.05     66.73       -0.11
  sub66             GreenRoof            59.60      0.00      0.00      0.00      0.00      7.05     66.73       -0.11
  sub67             GreenRoof            59.60      0.00      0.00      0.00      0.00      7.05     66.73       -0.11
  sub68             GreenRoof            59.60      0.00      0.00      0.00      0.00      7.05     66.73       -0.11
  sub69             GreenRoof            59.60      0.00      0.00      0.00      0.00      7.05     66.73       -0.11
  sub7              GreenRoof            59.60      0.00      0.00      0.00      0.00      7.05     66.73       -0.11
  sub70             GreenRoof            59.60      0.00      0.00      0.00      0.00      7.05     66.73       -0.11
  sub71             GreenRoof            59.60      0.00      0.00      0.00      0.00      7.05     66.73       -0.11
  sub72             GreenRoof            59.60      0.00      0.00      0.00      0.00      7.05     66.73       -0.11
  sub8              GreenRoof            59.60      0.00      0.00      0.00      0.00      7.05     66.73       -0.11
  sub9              GreenRoof            59.60      0.00      0.00      0.00      0.00      7.05     66.73       -0.11
  
  ******************
  Node Depth Summary
  ******************
  
  ---------------------------------------------------------------------------------
                                 Average  Maximum  Maximum  Time of Max    Reported
                                   Depth    Depth      HGL   Occurrence   Max Depth
  Node                 Type       Meters   Meters   Meters  days hr:min      Meters
  ---------------------------------------------------------------------------------
  HS02004478           JUNCTION     0.18     1.56    10.79     0  02:19        1.55
  HS02004479           JUNCTION     0.26     1.70    10.90     0  02:19        1.66
  HS02004480           JUNCTION     0.22     1.67    10.91     0  02:19        1.62
  HS02004770           JUNCTION     0.23     1.42    11.25     0  02:15        1.42
  HS02004777           JUNCTION     0.26     1.48    11.28     0  02:15        1.44
  HS02004785           JUNCTION     0.15     1.49    11.39     0  02:15        1.34
  HS02004788           JUNCTION     0.12     1.42    11.32     0  02:15        1.32
  HS02004792           JUNCTION     0.17     1.60    11.12     0  02:17        1.60
  HS02004799           JUNCTION     0.28     1.76    10.97     0  02:19        1.76
  HS02004802           JUNCTION     0.28     1.75    10.88     0  02:19        1.74
  HS02004807           JUNCTION     0.25     1.89    11.06     0  02:19        1.83
  HS02004817           JUNCTION     0.56     2.38    11.23     0  02:19        2.21
  HS02004824           JUNCTION     0.13     1.96    11.36     0  02:19        1.72
  HS02004830           JUNCTION     0.13     1.99    11.46     0  02:19        1.67
  HS02004837           JUNCTION     0.11     1.95    11.53     0  02:19        1.56
  HS02004842           JUNCTION     0.40     2.22    11.49     0  02:19        1.86
  HS02004848           JUNCTION     0.09     1.92    11.52     0  02:19        1.55
  HS02004852           JUNCTION     0.09     1.92    11.43     0  02:19        1.58
  HS02004856           JUNCTION     0.15     1.99    11.41     0  02:19        1.64
  HS02004862           JUNCTION     0.10     2.00    11.38     0  02:19        1.62
  HS02004870           JUNCTION     0.10     1.80    11.09     0  02:19        1.61
  HS02004876           JUNCTION     0.14     1.86    10.89     0  02:19        1.71
  HS02004881           JUNCTION     0.08     1.61    10.64     0  02:19        1.52
  HS02004901           JUNCTION     0.24     1.42    11.24     0  02:15        1.42
  WS02001211           JUNCTION     0.63     0.81     5.65     0  02:28        0.81
  WS02001212           JUNCTION     0.37     0.57     5.63     0  02:27        0.57
  WS02001213           JUNCTION     0.59     0.87     5.63     0  02:27        0.87
  WS02003059           JUNCTION     0.65     0.94     5.62     0  02:27        0.94
  WS02003060           JUNCTION     0.37     0.68     5.62     0  02:26        0.68
  WS02003066           JUNCTION     0.21     0.45     6.01     0  02:25        0.45
  WS02003067           JUNCTION     0.51     0.89     6.21     0  02:25        0.89
  WS02003069           JUNCTION     0.41     0.77     5.36     0  02:27        0.77
  WS02003072           JUNCTION     0.47     0.81     5.18     0  02:27        0.81
  WS02003073           JUNCTION     0.28     0.51     4.58     0  02:28        0.51
  WS02004138           JUNCTION     0.13     0.14     7.39     0  00:32        0.14
  WS02004139           JUNCTION     0.57     0.74     5.65     0  02:28        0.74
  WS02004401           JUNCTION     0.71     1.83     7.83     0  02:25        1.83
  WS02004402           JUNCTION     0.73     1.96     7.92     0  02:44        1.96
  WS02004403           JUNCTION     0.74     1.80     7.73     0  02:44        1.80
  WS02004404           JUNCTION     0.81     1.94     7.79     0  02:44        1.94
  WS02004405           JUNCTION     0.80     1.83     7.68     0  02:44        1.83
  WS02004406           JUNCTION     0.79     1.75     7.58     0  02:44        1.75
  WS02004407           JUNCTION     0.23     0.91     7.23     0  02:25        0.91
  WS02004409           JUNCTION     0.48     1.38     7.15     0  02:25        1.37
  WS02004410           JUNCTION     0.49     1.29     7.01     0  02:25        1.28
  WS02004411           JUNCTION     0.50     1.20     6.88     0  02:24        1.20
  WS02004412           JUNCTION     0.51     1.10     6.74     0  02:25        1.10
  WS02004413           JUNCTION     0.65     1.14     6.61     0  02:25        1.14
  WS02006109           JUNCTION     0.87     2.64     9.26     0  02:15        2.64
  WS02006110           JUNCTION     0.83     2.76     9.34     0  02:44        2.76
  WS02006111           JUNCTION     0.36     1.72     8.43     0  02:24        1.71
  WS02006112           JUNCTION     0.90     2.34     8.22     0  02:24        2.33
  WS02006113           JUNCTION     0.43     2.73     9.62     0  02:44        2.73
  WS02006115           JUNCTION     0.62     1.93     8.07     0  02:24        1.92
  WS02006116           JUNCTION     0.69     1.93     7.97     0  02:25        1.93
  WS02006228           JUNCTION     0.91     3.03     9.68     0  02:19        3.02
  WS02006229           JUNCTION     0.91     3.22     9.92     0  02:19        3.20
  WS02006230           JUNCTION     0.84     2.65     9.39     0  02:11        2.65
  WS02006231           JUNCTION     0.59     2.22     9.34     0  02:44        2.19
  WS02006232           JUNCTION     0.68     2.18     9.22     0  02:10        2.18
  WS02006234           JUNCTION     0.56     1.96     9.12     0  02:10        1.96
  WS02006235           JUNCTION     0.57     2.00     9.16     0  02:44        1.93
  WS02006238           JUNCTION     0.59     2.04     9.18     0  02:44        1.93
  WS02006239           JUNCTION     0.53     2.03     9.24     0  02:44        2.03
  WS02006240           JUNCTION     0.49     2.10     9.39     0  02:44        2.10
  WS02006242           JUNCTION     0.53     1.55     8.82     0  01:56        1.55
  WS02006243           JUNCTION     0.43     1.48     8.90     0  01:56        1.48
  WS02006245           JUNCTION     0.41     1.50     8.99     0  01:56        1.27
  WS02006247           JUNCTION     0.42     1.47     8.97     0  01:56        1.23
  WS02006248           JUNCTION     0.37     1.10     8.69     0  01:56        1.10
  WS02006249           JUNCTION     0.39     1.09     8.69     0  01:56        1.09
  WS02006251           JUNCTION     0.45     2.13     9.80     0  02:19        2.09
  WS02006252           JUNCTION     0.33     1.50     9.74     0  00:00        1.50
  WS02006253           JUNCTION     0.51     2.86    10.51     0  02:19        2.81
  WS02006256           JUNCTION     0.89     2.35     9.28     0  00:00        2.35
  WS02006280           JUNCTION     0.24     1.74    10.02     0  02:19        1.73
  WS02006284           JUNCTION     0.51     1.94    10.34     0  02:19        1.93
  WS02006287           JUNCTION     0.24     1.72    10.68     0  02:19        1.71
  WSF200               JUNCTION     0.20     0.52     5.75     0  02:25        0.52
  YS02001580           JUNCTION     0.05     1.05     9.59     0  02:15        0.77
  YS02001583           JUNCTION     0.08     1.01     9.50     0  02:15        0.82
  YS02001586           JUNCTION     0.14     1.13     9.30     0  02:15        1.13
  YS02001590           JUNCTION     0.23     1.40     9.26     0  02:15        1.37
  YS02001593           JUNCTION     0.16     1.34     9.20     0  02:15        1.28
  YS02001596           JUNCTION     0.22     1.68     9.10     0  02:15        1.65
  YS02001600           JUNCTION     0.28     1.87     9.00     0  02:15        1.87
  YS02001601           JUNCTION     0.47     2.06     8.90     0  02:14        2.06
  YS02001602           JUNCTION     0.39     1.87     8.77     0  02:17        1.87
  YS02001605           JUNCTION     0.36     1.77     8.68     0  02:33        1.77
  YS02001607           JUNCTION     0.36     1.68     8.53     0  02:44        1.68
  YS02001610           JUNCTION     0.41     1.68     8.48     0  02:17        1.68
  YS02001613           JUNCTION     0.37     1.65     8.50     0  02:23        1.65
  YS02001616           JUNCTION     0.30     1.59     8.50     0  02:23        1.58
  YS02001619           JUNCTION     0.28     1.57     8.50     0  02:24        1.57
  YS02001622           JUNCTION     0.26     1.56     8.46     0  02:23        1.56
  YS02001625           JUNCTION     0.52     1.78     8.38     0  02:17        1.78
  YS02001629           JUNCTION     0.38     1.85     8.40     0  02:19        1.85
  YS02001633           JUNCTION     0.46     2.08     8.53     0  02:44        2.08
  YS02001641           JUNCTION     0.45     1.95     8.39     0  02:21        1.94
  YS02001644           JUNCTION     0.45     1.92     8.35     0  02:20        1.92
  YS02001647           JUNCTION     0.24     1.73     8.34     0  02:24        1.72
  YS02001649           JUNCTION     0.38     2.05     8.44     0  02:44        2.05
  YS02001652           JUNCTION     0.20     1.76     8.36     0  02:24        1.75
  YS02001655           JUNCTION     0.13     1.71     8.56     0  02:19        1.53
  YS02001658           JUNCTION     0.09     1.53     8.68     0  02:20        1.28
  YS02001661           JUNCTION     0.13     1.06     8.47     0  02:24        1.06
  YS02001664           JUNCTION     0.04     0.49     8.41     0  02:24        0.42
  YS02001745           JUNCTION     0.05     0.73     8.25     0  02:23        0.73
  YS02001748           JUNCTION     0.09     1.34     8.41     0  02:22        1.16
  YS02001751           JUNCTION     0.11     1.40     8.28     0  02:22        1.35
  YS02001754           JUNCTION     0.18     1.63     8.23     0  02:22        1.61
  YS02001757           JUNCTION     0.47     1.97     8.23     0  02:24        1.96
  YS02001759           JUNCTION     0.38     1.94     8.30     0  02:24        1.93
  YS02001762           JUNCTION     0.35     1.91     8.31     0  02:24        1.91
  YS02001765           JUNCTION     0.31     1.88     8.33     0  02:25        1.88
  YS02001767           JUNCTION     0.29     1.87     8.36     0  02:24        1.86
  YS02001770           JUNCTION     0.29     1.89     8.39     0  02:22        1.89
  YS02001774           JUNCTION     0.35     1.96     8.38     0  02:23        1.96
  YS02001779           JUNCTION     0.14     1.68     8.37     0  02:18        1.68
  YS02001783           JUNCTION     0.21     1.76     7.90     0  02:33        1.39
  YS02001784           JUNCTION     0.23     1.72     7.78     0  02:33        1.35
  YS02001786           JUNCTION     0.20     1.66     7.69     0  02:33        1.21
  YS02001788           JUNCTION     0.16     1.55     7.53     0  02:33        1.08
  YS02001790           JUNCTION     0.21     1.96     7.60     0  02:33        1.27
  YS02001791           JUNCTION     0.18     1.52     6.99     0  02:33        1.26
  YS02001793           JUNCTION     0.21     1.92     6.75     0  02:44        1.92
  YS02001882           JUNCTION     0.24     1.64     8.36     0  02:21        1.63
  YS02001884           JUNCTION     0.33     1.73     8.35     0  02:21        1.72
  YS02001887           JUNCTION     0.41     1.81     8.34     0  02:21        1.81
  YS02001890           JUNCTION     0.44     1.81     8.32     0  02:21        1.81
  YS02001895           JUNCTION     0.22     1.57     8.32     0  02:21        1.56
  YS02001898           JUNCTION     0.22     1.57     8.31     0  02:21        1.56
  YS02001901           JUNCTION     0.33     1.68     8.29     0  02:21        1.67
  YS02001904           JUNCTION     0.31     1.64     8.27     0  02:21        1.63
  YS02001907           JUNCTION     0.63     1.96     8.25     0  02:21        1.96
  YS02001910           JUNCTION     0.43     1.98     8.48     0  02:21        1.94
  YS02001915           JUNCTION     0.24     1.93     8.65     0  02:21        1.89
  YS02001918           JUNCTION     0.12     1.81     8.88     0  02:21        1.81
  YS02001920           JUNCTION     0.19     2.07     9.08     0  02:21        2.02
  YS02001923           JUNCTION     0.08     1.98     9.24     0  02:21        1.91
  YS02001926           JUNCTION     0.12     1.88     9.33     0  02:21        1.79
  YS02001929           JUNCTION     0.06     1.78     9.47     0  02:21        1.58
  YS02006553           JUNCTION     0.63     2.04     8.32     0  02:33        1.97
  YS02006556           JUNCTION     0.61     2.09     8.40     0  02:33        1.93
  YS02006558           JUNCTION     0.65     2.14     8.41     0  02:33        1.98
  YS02006561           JUNCTION     0.12     1.37     8.03     0  02:33        0.99
  YS02163301           JUNCTION     0.41     2.03     8.55     0  02:44        2.03
  YS02163601           JUNCTION     0.50     2.03     8.43     0  02:20        2.00
  YS02164001           JUNCTION     0.44     1.95     8.41     0  02:20        1.93
  YSB1154              JUNCTION     0.39     1.89    10.94     0  02:19        1.88
  YSB1171              JUNCTION     0.54     1.95    10.85     0  02:19        1.95
  YSB1174              JUNCTION     0.34     1.79    10.90     0  02:24        1.79
  YSB6556              JUNCTION     0.29     1.75    10.91     0  02:19        1.72
  CC-1                 OUTFALL      0.00     0.00     0.00     0  00:00        0.00
  CC-2                 OUTFALL      0.00     0.00     0.00     0  00:00        0.00
  JK-1                 OUTFALL      0.00     0.00     0.00     0  00:00        0.00
  JK-2                 OUTFALL      0.00     0.00     0.00     0  00:00        0.00
  WSC                  OUTFALL      0.28     0.51     1.18     0  02:28        0.51
  CC-storage           STORAGE      1.10     1.72     7.22     0  02:41        1.72
  JK-storage           STORAGE      3.38     5.80     6.60     0  02:33        5.80
  XR-storage           STORAGE      7.96     9.26     7.26     0  08:00        9.26
  
  
  *******************
  Node Inflow Summary
  *******************
  
  -------------------------------------------------------------------------------------------------
                                  Maximum  Maximum                  Lateral       Total        Flow
                                  Lateral    Total  Time of Max      Inflow      Inflow     Balance
                                   Inflow   Inflow   Occurrence      Volume      Volume       Error
  Node                 Type           LPS      LPS  days hr:min    10^6 ltr    10^6 ltr     Percent
  -------------------------------------------------------------------------------------------------
  HS02004478           JUNCTION      0.00  2283.98     0  02:25           0         7.9      -0.010
  HS02004479           JUNCTION      0.00   393.21     0  02:20           0       0.735       0.118
  HS02004480           JUNCTION      0.00  2057.87     0  02:18           0        6.07       0.035
  HS02004770           JUNCTION   1347.50  1347.50     0  02:25        2.25        2.47       0.118
  HS02004777           JUNCTION      0.03   706.19     0  02:15    0.000864        1.81       0.282
  HS02004785           JUNCTION      0.15   711.14     0  02:15     0.00432        1.81       0.003
  HS02004788           JUNCTION    463.09   838.59     0  02:16       0.824        2.63       0.002
  HS02004792           JUNCTION   1742.40  2506.57     0  02:25        3.11        5.74       0.007
  HS02004799           JUNCTION    250.61  1746.53     0  02:16       0.392        5.37       0.048
  HS02004802           JUNCTION      0.00  1029.74     0  02:25           0        1.88       0.214
  HS02004807           JUNCTION    323.56  1028.32     0  02:25       0.502        1.92       0.236
  HS02004817           JUNCTION      0.60   711.15     0  02:25      0.0173        1.47       1.102
  HS02004824           JUNCTION    515.64   710.17     0  02:25        1.04        1.65       0.038
  HS02004830           JUNCTION      0.15   566.90     0  02:16     0.00432       0.801       0.154
  HS02004837           JUNCTION    321.82   736.63     0  02:19       0.695        1.11       0.066
  HS02004842           JUNCTION      0.00   740.81     0  02:19           0        0.72       1.851
  HS02004848           JUNCTION    487.16  1011.77     0  02:19        1.04        1.59       0.010
  HS02004852           JUNCTION      0.00   990.04     0  02:19           0        1.43      -0.062
  HS02004856           JUNCTION    128.23  1049.39     0  02:19         0.2        1.64       0.093
  HS02004862           JUNCTION    224.51  1123.21     0  02:18       0.447        2.08       0.023
  HS02004870           JUNCTION    175.94  1178.30     0  02:18       0.274        2.36      -0.007
  HS02004876           JUNCTION    202.30  1337.88     0  02:25       0.338        2.69       0.035
  HS02004881           JUNCTION     97.35  1434.99     0  02:25       0.149        2.84       0.003
  HS02004901           JUNCTION    308.63   571.05     0  02:25        0.48       0.744       0.226
  WS02001211           JUNCTION      7.35   203.75     0  03:27       0.212        5.44       0.611
  WS02001212           JUNCTION      0.00   209.62     0  03:27           0        5.41       0.290
  WS02001213           JUNCTION      0.00   214.09     0  03:27           0        5.39       0.333
  WS02003059           JUNCTION      0.00   221.58     0  03:28           0        5.38       0.595
  WS02003060           JUNCTION     16.53  1497.91     0  02:26       0.476        13.5       0.109
  WS02003066           JUNCTION      0.00  1294.84     0  02:25           0        7.71       0.019
  WS02003067           JUNCTION      0.00  1294.38     0  02:25           0        7.72       0.057
  WS02003069           JUNCTION      0.32  1497.90     0  02:26     0.00922        13.5       0.114
  WS02003072           JUNCTION      0.00  1497.59     0  02:27           0        13.5       0.155
  WS02003073           JUNCTION      1.82  1499.53     0  02:27      0.0524        13.5       0.161
  WS02004138           JUNCTION      0.00   380.00     0  00:00           0        5.25       0.054
  WS02004139           JUNCTION      0.32   190.32     0  00:32     0.00924        5.26       0.509
  WS02004401           JUNCTION      0.00  1294.57     0  02:25           0        7.82       0.136
  WS02004402           JUNCTION      0.00  1295.53     0  02:25           0        7.81       0.137
  WS02004403           JUNCTION      0.00  1295.24     0  02:25           0         7.8       0.132
  WS02004404           JUNCTION      0.16  1294.89     0  02:24     0.00467         7.8       0.109
  WS02004405           JUNCTION      0.04  1296.30     0  02:25      0.0011        7.79       0.163
  WS02004406           JUNCTION      0.00  1294.97     0  02:25           0        7.78       0.276
  WS02004407           JUNCTION      0.00  1294.76     0  02:25           0        7.75       0.020
  WS02004409           JUNCTION      0.00  1294.47     0  02:25           0        7.75       0.041
  WS02004410           JUNCTION      0.00  1294.32     0  02:25           0        7.75       0.063
  WS02004411           JUNCTION      0.00  1294.43     0  02:25           0        7.74       0.080
  WS02004412           JUNCTION      0.00  1294.13     0  02:25           0        7.74       0.104
  WS02004413           JUNCTION      0.00  1294.23     0  02:25           0        7.73       0.178
  WS02006109           JUNCTION      1.23  1279.81     0  02:25      0.0354        7.62       0.149
  WS02006110           JUNCTION      0.00  1120.27     0  02:36           0        7.44       0.105
  WS02006111           JUNCTION      0.00  1121.92     0  02:44           0        7.43       0.012
  WS02006112           JUNCTION    269.44  1294.51     0  02:25       0.428        7.85       0.231
  WS02006113           JUNCTION      0.00  1120.62     0  02:36           0        7.43       0.025
  WS02006115           JUNCTION      0.00  1294.99     0  02:25           0        7.84       0.085
  WS02006116           JUNCTION      0.00  1295.16     0  02:25           0        7.83       0.082
  WS02006228           JUNCTION      0.00  1278.29     0  02:25           0        7.59       0.073
  WS02006229           JUNCTION      0.00  2286.46     0  02:25           0        9.56       0.089
  WS02006230           JUNCTION     10.28  1016.65     0  02:25       0.296        3.69       0.262
  WS02006231           JUNCTION      0.00   468.19     0  02:44           0        2.66      -0.190
  WS02006232           JUNCTION      0.00   459.99     0  02:44           0        2.66       0.264
  WS02006234           JUNCTION      0.00   458.82     0  03:20           0        2.65      -0.233
  WS02006235           JUNCTION      0.00   502.48     0  02:44           0        2.66       0.312
  WS02006238           JUNCTION      0.00   463.62     0  02:44           0        2.31      -0.163
  WS02006239           JUNCTION      0.00   415.16     0  02:35           0        2.29      -0.103
  WS02006240           JUNCTION      0.00   414.82     0  02:49           0        2.28       0.015
  WS02006242           JUNCTION      0.00   416.35     0  02:44           0        2.27       0.053
  WS02006243           JUNCTION      0.00   371.48     0  00:05           0        1.94       0.106
  WS02006245           JUNCTION      0.00   383.09     0  00:05           0        1.94       0.358
  WS02006247           JUNCTION      0.00   385.59     0  00:04           0        1.94       0.056
  WS02006248           JUNCTION      0.00   390.96     0  00:04           0        2.18       0.014
  WS02006249           JUNCTION      0.00  1335.92     0  02:25           0        4.87       0.134
  WS02006251           JUNCTION      0.08  1466.90     0  02:25     0.00222        4.91      -0.002
  WS02006252           JUNCTION      0.00   400.00     0  00:00           0        2.22      -0.022
  WS02006253           JUNCTION     31.42  1466.85     0  02:25      0.0465        2.91       0.006
  WS02006256           JUNCTION      0.00   300.00     0  00:00           0        1.06      -0.437
  WS02006280           JUNCTION      0.00  2285.11     0  02:25           0        7.87      -0.000
  WS02006284           JUNCTION      0.10  2284.83     0  02:25     0.00275        7.87       0.011
  WS02006287           JUNCTION      0.00  2285.38     0  02:25           0        7.87       0.011
  WSF200               JUNCTION      0.00  1294.98     0  02:25           0        7.71       0.011
  YS02001580           JUNCTION      0.00    76.29     0  02:14           0     0.00422       1.901
  YS02001583           JUNCTION      0.00   130.61     0  02:14           0      0.0155      -3.522
  YS02001586           JUNCTION    568.40   568.40     0  02:26        1.26        1.27       0.083
  YS02001590           JUNCTION      0.00   318.05     0  02:36           0        1.11      -0.023
  YS02001593           JUNCTION      0.00   318.11     0  02:36           0        1.11       0.006
  YS02001596           JUNCTION      0.00   318.15     0  02:36           0        1.11       0.000
  YS02001600           JUNCTION      0.00   318.13     0  02:36           0        1.11       0.013
  YS02001601           JUNCTION    941.13  1258.60     0  02:25        1.69         2.8       0.027
  YS02001602           JUNCTION      0.00   489.67     0  02:14           0           2       0.018
  YS02001605           JUNCTION      0.00   489.24     0  02:14           0        1.92       0.014
  YS02001607           JUNCTION      0.00   489.21     0  02:14           0        1.92       0.098
  YS02001610           JUNCTION      0.00   491.14     0  02:13           0        1.95       0.113
  YS02001613           JUNCTION      0.00   493.84     0  02:13           0        1.66       0.093
  YS02001616           JUNCTION      0.00   495.96     0  02:13           0        1.66       0.027
  YS02001619           JUNCTION    979.72   979.72     0  02:26        1.95        3.58       0.003
  YS02001622           JUNCTION      0.00   897.47     0  02:17           0        3.54      -0.000
  YS02001625           JUNCTION      0.00  1098.46     0  02:26           0        3.62       0.258
  YS02001629           JUNCTION      0.00   896.49     0  02:16           0        2.98       0.010
  YS02001633           JUNCTION    728.69  1255.82     0  02:17        1.28        4.18       0.085
  YS02001641           JUNCTION      0.00  1259.38     0  02:17           0        4.11       0.072
  YS02001644           JUNCTION    621.96  1578.67     0  02:17        1.05        5.15       0.067
  YS02001647           JUNCTION      0.00  1577.88     0  02:17           0        5.04       0.004
  YS02001649           JUNCTION      0.00  1758.67     0  02:19           0        6.05       0.108
  YS02001652           JUNCTION      0.00   669.17     0  02:25           0        1.01      -0.066
  YS02001655           JUNCTION      0.15   667.95     0  02:25     0.00443        1.01       0.036
  YS02001658           JUNCTION      0.00   666.16     0  02:25           0           1      -0.079
  YS02001661           JUNCTION      0.00   843.29     0  02:25           0           1      -0.004
  YS02001664           JUNCTION    632.69   632.69     0  02:25           1           1      -0.005
  YS02001745           JUNCTION    373.93   373.93     0  02:25       0.574       0.574       0.174
  YS02001748           JUNCTION      0.04   450.73     0  02:22      0.0013       0.575      -0.292
  YS02001751           JUNCTION      0.01   379.75     0  02:24    0.000317       0.583       0.152
  YS02001754           JUNCTION      0.26   380.55     0  02:25     0.00749       0.604      -0.190
  YS02001757           JUNCTION      0.00  2937.51     0  02:24           0        8.72       0.378
  YS02001759           JUNCTION    547.36  1185.07     0  02:24       0.839         2.1       0.237
  YS02001762           JUNCTION      0.00   664.40     0  02:23           0        1.26       0.278
  YS02001765           JUNCTION      0.00   664.20     0  02:23           0        1.26       0.220
  YS02001767           JUNCTION      0.54   664.12     0  02:23      0.0154        1.26       0.266
  YS02001770           JUNCTION    754.91   754.91     0  02:25        1.24         1.3       0.175
  YS02001774           JUNCTION      0.00   205.41     0  02:18           0      0.0899       4.137
  YS02001779           JUNCTION      0.01   201.26     0  02:18    0.000144      0.0366      -1.590
  YS02001783           JUNCTION      0.00  1154.76     0  02:23           0        3.31       0.006
  YS02001784           JUNCTION      1.06  1155.87     0  02:23      0.0305        3.34       0.025
  YS02001786           JUNCTION      0.06  1155.64     0  02:23     0.00162        3.34       0.019
  YS02001788           JUNCTION      0.07  1155.42     0  02:23     0.00204        3.35       0.000
  YS02001790           JUNCTION      0.15  1166.52     0  02:23     0.00446        3.35       0.019
  YS02001791           JUNCTION      0.00  1290.33     0  02:24           0        3.35      -0.046
  YS02001793           JUNCTION      0.00  1232.74     0  02:29           0        3.35      -0.026
  YS02001882           JUNCTION      0.00    34.42     0  02:18           0      0.0125       4.471
  YS02001884           JUNCTION      0.00    50.27     0  02:17           0      0.0482       5.178
  YS02001887           JUNCTION    573.43   573.43     0  02:25       0.871       0.904       0.476
  YS02001890           JUNCTION      0.00   573.40     0  02:25           0       0.863       0.587
  YS02001895           JUNCTION      0.00   514.98     0  02:26           0        0.85       0.159
  YS02001898           JUNCTION      0.00   515.45     0  02:26           0       0.848       0.010
  YS02001901           JUNCTION      0.00   515.74     0  02:26           0       0.851       0.372
  YS02001904           JUNCTION      0.00   515.15     0  02:26           0       0.855       0.309
  YS02001907           JUNCTION      0.00  1514.79     0  02:26           0         2.6       0.687
  YS02001910           JUNCTION      0.00   999.97     0  02:26           0        1.75       0.406
  YS02001915           JUNCTION    626.42  1000.14     0  02:26        1.07        1.78       0.083
  YS02001918           JUNCTION      0.00   455.36     0  02:22           0       0.732       0.004
  YS02001920           JUNCTION      2.87   453.91     0  02:22      0.0827       0.719       0.127
  YS02001923           JUNCTION      0.04   422.61     0  02:22     0.00109       0.623      -0.047
  YS02001926           JUNCTION      0.05   417.90     0  02:22      0.0015       0.609       0.110
  YS02001929           JUNCTION    326.29   326.29     0  02:26       0.601       0.601      -0.143
  YS02006553           JUNCTION      0.00   794.01     0  02:33           0        2.15       0.541
  YS02006556           JUNCTION      0.00   793.86     0  02:33           0        2.16       0.360
  YS02006558           JUNCTION    750.87  1156.00     0  02:23        1.21        3.34       0.109
  YS02006561           JUNCTION      0.00  1154.50     0  02:23           0        3.31      -0.003
  YS02163301           JUNCTION      0.00   899.50     0  02:16           0        2.98       0.050
  YS02163601           JUNCTION      0.11  1257.08     0  02:17     0.00317         4.1       0.121
  YS02164001           JUNCTION      0.00  1256.24     0  02:17           0         4.1       0.061
  YSB1154              JUNCTION    325.89   325.89     0  02:25       0.538       0.539       0.270
  YSB1171              JUNCTION      0.00   647.54     0  02:25           0       0.956       0.647
  YSB1174              JUNCTION    270.98   270.98     0  02:25       0.401       0.401       0.333
  YSB6556              JUNCTION      0.00   325.71     0  02:25           0        0.54       0.212
  CC-1                 OUTFALL       0.00   683.00     0  00:00           0        3.29       0.000
  CC-2                 OUTFALL       0.00   683.00     0  00:00           0         2.2       0.000
  JK-1                 OUTFALL       0.00  1000.00     0  00:00           0        1.36       0.000
  JK-2                 OUTFALL       0.00  1000.00     0  00:00           0       0.408       0.000
  WSC                  OUTFALL       0.00  1499.81     0  02:28           0        13.5       0.000
  CC-storage           STORAGE       0.00  2936.31     0  02:24           0        10.9       0.114
  JK-storage           STORAGE       0.00  1256.28     0  02:23           0         3.5       0.201
  XR-storage           STORAGE     200.00   200.00     0  00:00        5.76        6.36       0.001
  
  
  **********************
  Node Surcharge Summary
  **********************
  
  Surcharging occurs when water rises above the top of the highest conduit.
  ---------------------------------------------------------------------
                                               Max. Height   Min. Depth
                                   Hours       Above Crown    Below Rim
  Node                 Type      Surcharged         Meters       Meters
  ---------------------------------------------------------------------
  HS02004478           JUNCTION        0.40          0.643        0.297
  HS02004479           JUNCTION        0.52          0.899        0.151
  HS02004480           JUNCTION        0.56          0.962        0.138
  HS02004770           JUNCTION        0.47          0.720        0.000
  HS02004777           JUNCTION        0.48          0.780        0.000
  HS02004785           JUNCTION        0.43          0.790        0.000
  HS02004788           JUNCTION        0.41          0.720        0.000
  HS02004792           JUNCTION        0.53          0.900        0.000
  HS02004799           JUNCTION        0.66          1.060        0.000
  HS02004802           JUNCTION        0.57          1.041        0.169
  HS02004807           JUNCTION        0.55          1.193        0.027
  HS02004817           JUNCTION        1.12          1.682        0.058
  HS02004824           JUNCTION        0.42          1.258        0.052
  HS02004830           JUNCTION        0.39          1.289        0.041
  HS02004837           JUNCTION        0.35          1.250        0.090
  HS02004842           JUNCTION        0.48          1.520        0.000
  HS02004848           JUNCTION        0.30          1.219        0.151
  HS02004852           JUNCTION        0.33          1.217        0.203
  HS02004856           JUNCTION        0.32          1.216        0.084
  HS02004862           JUNCTION        0.35          1.300        0.000
  HS02004870           JUNCTION        0.37          1.100        0.300
  HS02004876           JUNCTION        0.43          1.156        0.404
  HS02004881           JUNCTION        0.42          0.912        0.538
  HS02004901           JUNCTION        0.47          0.720        0.000
  WS02004401           JUNCTION        1.44          0.834        0.826
  WS02004402           JUNCTION        1.45          0.961        0.779
  WS02004403           JUNCTION        1.46          0.798        1.232
  WS02004404           JUNCTION        1.54          0.936        1.844
  WS02004405           JUNCTION        1.53          0.825        1.975
  WS02004406           JUNCTION        1.51          0.751        1.699
  WS02004409           JUNCTION        0.95          0.380        1.980
  WS02004410           JUNCTION        0.88          0.290        2.250
  WS02004411           JUNCTION        0.78          0.200        2.330
  WS02004412           JUNCTION        0.69          0.100        2.210
  WS02004413           JUNCTION        1.17          0.143        2.057
  WS02006109           JUNCTION        1.99          1.820        0.000
  WS02006110           JUNCTION        1.63          1.850        0.000
  WS02006111           JUNCTION        1.12          0.909        0.961
  WS02006112           JUNCTION        1.73          1.342        0.338
  WS02006113           JUNCTION        1.14          1.930        0.000
  WS02006115           JUNCTION        1.33          0.922        1.328
  WS02006116           JUNCTION        1.35          0.867        1.423
  WS02006228           JUNCTION        1.97          2.199        0.001
  WS02006229           JUNCTION        0.82          1.044        0.026
  WS02006230           JUNCTION        1.49          1.570        0.000
  WS02006231           JUNCTION        1.51          1.510        0.020
  WS02006232           JUNCTION        1.68          1.480        0.000
  WS02006234           JUNCTION        1.51          1.240        0.000
  WS02006235           JUNCTION        1.55          1.290        0.000
  WS02006238           JUNCTION        1.57          1.321        0.109
  WS02006239           JUNCTION        1.49          1.290        0.000
  WS02006240           JUNCTION        1.48          1.390        0.000
  WS02006242           JUNCTION        1.51          0.820        0.000
  WS02006243           JUNCTION        1.43          0.770        0.000
  WS02006245           JUNCTION        1.43          0.791        0.059
  WS02006247           JUNCTION        1.43          0.760        0.000
  WS02006248           JUNCTION        1.42          0.380        0.000
  WS02006249           JUNCTION        1.42          0.390        0.000
  WS02006251           JUNCTION        1.35          1.100        0.080
  WS02006252           JUNCTION        1.46          1.100        0.000
  WS02006253           JUNCTION        1.37          1.823        0.657
  WS02006256           JUNCTION        7.98          2.050        0.000
  WS02006280           JUNCTION        0.67          0.694        0.086
  WS02006284           JUNCTION        0.59          0.657        0.143
  WS02006287           JUNCTION        0.49          0.722        0.168
  YS02001580           JUNCTION        0.45          0.450        0.000
  YS02001583           JUNCTION        0.45          0.366        0.134
  YS02001586           JUNCTION        0.56          0.510        0.000
  YS02001590           JUNCTION        0.63          0.750        0.000
  YS02001593           JUNCTION        0.64          0.717        0.123
  YS02001596           JUNCTION        0.75          0.952        0.118
  YS02001600           JUNCTION        0.91          1.190        0.000
  YS02001601           JUNCTION        1.25          1.440        0.000
  YS02001602           JUNCTION        1.14          1.270        0.000
  YS02001605           JUNCTION        1.09          1.175        0.005
  YS02001607           JUNCTION        0.62          0.680        0.000
  YS02001610           JUNCTION        0.65          0.680        0.000
  YS02001613           JUNCTION        0.62          0.654        0.046
  YS02001616           JUNCTION        0.58          0.589        0.021
  YS02001619           JUNCTION        0.56          0.571        0.039
  YS02001622           JUNCTION        0.56          0.556        0.064
  YS02001625           JUNCTION        0.74          0.780        0.000
  YS02001629           JUNCTION        0.52          0.470        0.000
  YS02001633           JUNCTION        0.77          1.060        0.000
  YS02001641           JUNCTION        0.71          0.950        0.150
  YS02001644           JUNCTION        0.68          0.920        0.000
  YS02001647           JUNCTION        0.49          0.729        0.171
  YS02001649           JUNCTION        0.61          1.050        0.000
  YS02001652           JUNCTION        0.44          0.732        0.398
  YS02001655           JUNCTION        0.31          0.715        0.485
  YS02001658           JUNCTION        0.16          0.535        0.765
  YS02001748           JUNCTION        0.09          0.258        0.932
  YS02001751           JUNCTION        0.23          0.404        0.796
  YS02001754           JUNCTION        0.37          0.577        0.573
  YS02001757           JUNCTION        0.68          0.967        0.243
  YS02001759           JUNCTION        0.59          0.936        0.274
  YS02001762           JUNCTION        0.56          0.915        0.235
  YS02001765           JUNCTION        0.52          0.882        0.218
  YS02001767           JUNCTION        0.48          0.868        0.162
  YS02001770           JUNCTION        0.47          0.863        0.057
  YS02001774           JUNCTION        0.53          0.963        0.087
  YS02001779           JUNCTION        0.36          0.680        0.000
  YS02001783           JUNCTION        0.50          0.960        0.640
  YS02001784           JUNCTION        0.50          0.916        0.574
  YS02001786           JUNCTION        0.45          0.858        0.572
  YS02001788           JUNCTION        0.23          0.754        0.726
  YS02001790           JUNCTION        0.51          1.157        0.000
  YS02001791           JUNCTION        0.56          0.723        1.197
  YS02001793           JUNCTION        0.65          0.922        1.678
  YS02001882           JUNCTION        0.36          0.639        0.191
  YS02001884           JUNCTION        0.38          0.673        0.197
  YS02001887           JUNCTION        0.41          0.756        0.194
  YS02001890           JUNCTION        0.42          0.760        0.000
  YS02001895           JUNCTION        0.35          0.569        0.181
  YS02001898           JUNCTION        0.35          0.542        0.198
  YS02001901           JUNCTION        0.40          0.683        0.187
  YS02001904           JUNCTION        0.39          0.643        0.207
  YS02001907           JUNCTION        0.64          0.950        0.000
  YS02001910           JUNCTION        0.45          0.976        0.124
  YS02001915           JUNCTION        0.36          0.928        0.072
  YS02001918           JUNCTION        0.27          0.810        0.000
  YS02001920           JUNCTION        0.28          1.075        0.065
  YS02001923           JUNCTION        0.01          0.769        0.051
  YS02001926           JUNCTION        0.01          0.884        0.016
  YS02001929           JUNCTION        0.01          0.780        0.000
  YS02006553           JUNCTION        0.66          1.039        0.151
  YS02006556           JUNCTION        0.54          1.051        0.299
  YS02006558           JUNCTION        0.53          1.043        0.357
  YS02006561           JUNCTION        0.29          0.573        0.577
  YS02163301           JUNCTION        0.75          1.030        0.000
  YS02163601           JUNCTION        0.80          1.031        0.049
  YS02164001           JUNCTION        0.71          0.952        0.148
  YSB1154              JUNCTION        0.78          1.186        0.214
  YSB1171              JUNCTION        0.78          1.100        0.000
  YSB1174              JUNCTION        0.70          1.086        0.164
  YSB6556              JUNCTION        0.63          1.045        0.055
  
  
  *********************
  Node Flooding Summary
  *********************
  
  Flooding refers to all water that overflows a node, whether it ponds or not.
  --------------------------------------------------------------------------
                                                             Total   Maximum
                                 Maximum   Time of Max       Flood    Ponded
                        Hours       Rate    Occurrence      Volume     Depth
  Node                 Flooded       LPS   days hr:min    10^6 ltr    Meters
  --------------------------------------------------------------------------
  HS02004770              0.31    783.44      0  02:25       0.399     0.000
  HS02004777              0.01     13.52      0  02:15       0.000     0.000
  HS02004785              0.01     39.88      0  02:15       0.000     0.000
  HS02004788              0.01    180.15      0  02:15       0.001     0.000
  HS02004792              0.29   1364.12      0  02:25       0.763     0.000
  HS02004799              0.09     93.40      0  02:24       0.015     0.000
  HS02004842              0.01     37.38      0  02:19       0.000     0.000
  HS02004862              0.01     83.97      0  02:19       0.000     0.000
  HS02004901              0.37    570.87      0  02:25       0.516     0.000
  WS02006109              0.33    254.82      0  02:25       0.172     0.000
  WS02006110              0.01      0.25      0  02:44       0.000     0.000
  WS02006113              0.01      0.86      0  02:44       0.000     0.000
  WS02006230              0.60    563.64      0  02:25       0.764     0.000
  WS02006232              0.15     10.84      0  02:44       0.000     0.000
  WS02006234              0.66    131.97      0  02:44       0.199     0.000
  WS02006235              0.01     39.41      0  02:44       0.000     0.000
  WS02006239              0.01      0.56      0  02:44       0.000     0.000
  WS02006240              0.01      0.18      0  02:44       0.000     0.000
  WS02006242              0.76    138.18      0  02:44       0.327     0.000
  WS02006243              0.01     51.45      0  01:56       0.000     0.000
  WS02006247              0.01     86.56      0  01:56       0.000     0.000
  WS02006248              1.10    339.60      0  02:11       1.114     0.000
  WS02006249              1.38   1274.90      0  02:25       3.553     0.000
  WS02006252              0.36    333.50      0  02:25       0.215     0.000
  WS02006256              0.97    293.19      0  00:00       0.523     0.000
  YS02001580              0.01     39.89      0  02:15       0.000     0.000
  YS02001586              0.33    250.90      0  02:26       0.149     0.000
  YS02001590              0.01      5.53      0  02:15       0.000     0.000
  YS02001600              0.01      5.53      0  02:44       0.000     0.000
  YS02001601              0.50    860.73      0  02:25       0.799     0.000
  YS02001602              0.41     61.99      0  02:39       0.083     0.000
  YS02001607              0.01      0.72      0  02:44       0.000     0.000
  YS02001610              0.36    458.28      0  02:26       0.314     0.000
  YS02001625              0.33   1098.42      0  02:26       0.708     0.000
  YS02001629              0.03     20.99      0  02:20       0.001     0.000
  YS02001644              0.12    433.44      0  02:25       0.097     0.000
  YS02001649              0.01      1.39      0  02:44       0.000     0.000
  YS02001779              0.08    126.64      0  02:25       0.019     0.000
  YS02001790              0.01    154.38      0  02:33       0.000     0.000
  YS02001890              0.08     64.17      0  02:24       0.009     0.000
  YS02001907              0.21   1086.01      0  02:26       0.438     0.000
  YS02001918              0.01     89.89      0  02:22       0.001     0.000
  YS02001929              0.01    192.48      0  02:21       0.000     0.000
  YS02163301              0.01      0.54      0  02:44       0.000     0.000
  YSB1171                 0.19    647.47      0  02:25       0.232     0.000
  JK-storage              0.38    699.62      0  02:33       0.471     0.000
  
  
  **********************
  Storage Volume Summary
  **********************
  
  --------------------------------------------------------------------------------------------------
                         Average     Avg  Evap Exfil       Maximum     Max    Time of Max    Maximum
                          Volume    Pcnt  Pcnt  Pcnt        Volume    Pcnt     Occurrence    Outflow
  Storage Unit           1000 m3    Full  Loss  Loss       1000 m3    Full    days hr:min        LPS
  --------------------------------------------------------------------------------------------------
  CC-storage               3.075      48     0     0         4.795      75       0  02:41    1783.53
  JK-storage               0.170      58     0     0         0.291     100       0  02:33    2300.00
  XR-storage               0.955      66     0     0         1.111      77       0  08:00     380.00
  
  
  ***********************
  Outfall Loading Summary
  ***********************
  
  -----------------------------------------------------------
                         Flow       Avg       Max       Total
                         Freq      Flow      Flow      Volume
  Outfall Node           Pcnt       LPS       LPS    10^6 ltr
  -----------------------------------------------------------
  CC-1                  20.15    683.00    683.00       3.294
  CC-2                  12.18    683.00    683.00       2.201
  JK-1                  17.86    328.36   1000.00       1.362
  JK-2                  13.43    106.91   1000.00       0.408
  WSC                   99.96    568.46   1499.81      13.516
  -----------------------------------------------------------
  System                32.71   2369.74   1499.81      20.782
  
  
  ********************
  Link Flow Summary
  ********************
  
  -----------------------------------------------------------------------------
                                 Maximum  Time of Max   Maximum    Max/    Max/
                                  |Flow|   Occurrence   |Veloc|    Full    Full
  Link                 Type          LPS  days hr:min     m/sec    Flow   Depth
  -----------------------------------------------------------------------------
  1                    CONDUIT   1499.81     0  02:28      3.69    0.52    0.51
  HS02004478WS02006287 CONDUIT   2285.38     0  02:25      2.60    0.64    1.00
  HS02004479HS02004480 CONDUIT    391.63     0  02:20      0.56    0.38    1.00
  HS02004480HS02004478 CONDUIT   2055.01     0  02:18      2.94    8.66    1.00
  HS02004770HS02004777 CONDUIT    706.16     0  02:15      1.01    1.29    1.00
  HS02004777HS02004785 CONDUIT    710.99     0  02:15      1.07    0.87    1.00
  HS02004785HS02004788 CONDUIT    631.29     0  02:15      1.36    4.76    1.00
  HS02004788HS02004792 CONDUIT    837.58     0  02:16      1.43    0.55    1.00
  HS02004792HS02004799 CONDUIT   1625.86     0  02:16      2.32    1.00    1.00
  HS02004799HS02004480 CONDUIT   1745.33     0  02:16      2.49    2.21    1.00
  HS02004802HS02004478 CONDUIT   1030.11     0  02:25      1.47    0.91    1.00
  HS02004807HS02004802 CONDUIT   1029.74     0  02:25      1.47    1.97    1.00
  HS02004817HS02004807 CONDUIT    711.33     0  02:25      1.02    0.42    1.00
  HS02004817HS02004824 CONDUIT    710.55     0  02:25      1.02    0.32    1.00
  HS02004824HS02004830 CONDUIT    566.75     0  02:16      0.83    0.74    1.00
  HS02004830HS02004837 CONDUIT    580.18     0  02:16      0.91    0.58    1.00
  HS02004837HS02004842 CONDUIT    740.81     0  02:19      1.06    0.44    1.00
  HS02004842HS02004848 CONDUIT    738.73     0  02:19      1.12    0.43    1.00
  HS02004848HS02004852 CONDUIT    990.04     0  02:19      1.53    1.12    1.00
  HS02004852HS02004856 CONDUIT    975.27     0  02:19      1.44    1.12    1.00
  HS02004856HS02004862 CONDUIT    999.63     0  02:18      1.66    1.00    1.00
  HS02004862HS02004870 CONDUIT   1080.71     0  02:18      1.89    1.17    1.00
  HS02004870HS02004876 CONDUIT   1135.95     0  02:25      1.75    0.75    1.00
  HS02004876HS02004881 CONDUIT   1338.35     0  02:25      2.42   14.23    1.00
  HS02004881HS02006253 CONDUIT   1435.77     0  02:25      2.72    0.28    1.00
  HS02004901HS02004770 CONDUIT    265.78     0  02:34      0.38    1.00    1.00
  WS02001211WS02001212 CONDUIT    209.62     0  03:27      0.54    0.16    0.69
  WS02001212WS02001213 CONDUIT    214.09     0  03:27      1.04    0.33    0.56
  WS02001213WS02003059 CONDUIT    221.58     0  03:28      0.47    0.37    0.89
  WS02003059WS02003060 CONDUIT    230.50     0  03:27      0.67    0.15    0.81
  WS02003060WS02003069 CONDUIT   1497.58     0  02:26      2.08    0.59    0.61
  WS02003066WSF200     CONDUIT   1294.98     0  02:25      3.24    0.22    0.38
  WS02003067WS02003066 CONDUIT   1294.84     0  02:25      1.99    0.41    0.56
  WS02003069WS02003072 CONDUIT   1497.59     0  02:27      1.89    0.72    0.66
  WS02003072WS02003073 CONDUIT   1497.71     0  02:27      2.05    3.23    0.62
  WS02004138WS02004139 CONDUIT    190.00     0  00:32      2.15    0.04    0.41
  WS02004139WS02001211 CONDUIT    196.40     0  03:27      0.54    0.25    0.60
  WS02004401WS02004402 CONDUIT   1295.53     0  02:25      1.65    1.56    1.00
  WS02004402WS02004403 CONDUIT   1295.24     0  02:25      1.65    1.86    1.00
  WS02004403WS02004404 CONDUIT   1294.72     0  02:24      1.65    0.94    1.00
  WS02004404WS02004405 CONDUIT   1296.26     0  02:25      1.65   12.70    1.00
  WS02004405WS02004406 CONDUIT   1294.97     0  02:25      1.65    2.55    1.00
  WS02004406WS02004407 CONDUIT   1294.76     0  02:25      1.71    0.58    0.96
  WS02004407WS02004409 CONDUIT   1294.47     0  02:25      1.77    0.46    0.96
  WS02004409WS02004410 CONDUIT   1294.32     0  02:25      1.65    1.67    1.00
  WS02004410WS02004411 CONDUIT   1294.43     0  02:25      1.65    1.77    1.00
  WS02004411WS02004412 CONDUIT   1294.13     0  02:25      1.65    1.84    1.00
  WS02004412WS02004413 CONDUIT   1294.23     0  02:25      1.65    0.87    1.00
  WS02004413WS02003067 CONDUIT   1294.38     0  02:25      2.01    0.55    0.77
  WS02006109WS02006110 CONDUIT   1120.27     0  02:36      2.23    2.15    1.00
  WS02006110WS02006113 CONDUIT   1120.62     0  02:36      2.23    1.02    1.00
  WS02006111WS02006112 CONDUIT   1123.36     0  02:44      2.23    0.53    1.00
  WS02006112WS02006115 CONDUIT   1294.99     0  02:25      1.65    0.76    1.00
  WS02006113WS02006111 CONDUIT   1121.92     0  02:44      2.59    1.34    1.00
  WS02006115WS02006116 CONDUIT   1295.16     0  02:25      1.65    1.66    1.00
  WS02006116WS02004401 CONDUIT   1294.57     0  02:25      1.65    1.78    1.00
  WS02006228WS02006109 CONDUIT   1278.58     0  02:25      2.54    5.59    1.00
  WS02006229WS02006228 CONDUIT   1278.29     0  02:25      2.54    4.23    1.00
  WS02006230WS02006229 CONDUIT   1006.37     0  02:25      2.61   22.40    1.00
  WS02006231WS02006230 CONDUIT    468.19     0  02:44      1.27    7.10    1.00
  WS02006232WS02006231 CONDUIT    459.99     0  02:44      1.20    0.96    1.00
  WS02006234WS02006232 CONDUIT    458.88     0  03:20      1.41    0.93    1.00
  WS02006235WS02006234 CONDUIT    458.82     0  03:20      1.23    4.84    1.00
  WS02006238WS02006235 CONDUIT    463.62     0  02:44      1.45    1.03    1.00
  WS02006239WS02006238 CONDUIT    415.16     0  02:35      1.12    1.33    1.00
  WS02006240WS02006239 CONDUIT    414.82     0  02:49      1.26    1.31    1.00
  WS02006242WS02006240 CONDUIT    416.35     0  02:44      1.14    1.65    1.00
  WS02006243WS02006242 CONDUIT    371.22     0  03:20      1.34    0.79    1.00
  WS02006245WS02006243 CONDUIT    371.48     0  00:05      1.39    1.10    1.00
  WS02006247WS02006245 CONDUIT    383.09     0  00:05      1.37    3.04    1.00
  WS02006248WS02006247 CONDUIT    385.59     0  00:04      1.38    0.84    1.00
  WS02006249WS02006248 CONDUIT    390.96     0  00:04      1.38    2.14    1.00
  WS02006251WS02006249 CONDUIT   1335.92     0  02:25      3.47    3.85    1.00
  WS02006252WS02006251 CONDUIT    406.64     0  02:48      3.88    1.49    1.00
  WS02006253WS02006251 CONDUIT   1466.83     0  02:25      3.81    4.40    1.00
  WS02006256WS02006235 CONDUIT    288.93     0  00:00      4.23    3.06    1.00
  WS02006280WS02006229 CONDUIT   2286.46     0  02:25      4.36    0.49    1.00
  WS02006284WS02006280 CONDUIT   2285.11     0  02:25      2.98    0.96    1.00
  WS02006287WS02006284 CONDUIT   2284.73     0  02:25      2.91    1.06    1.00
  WSF200WS02003060     CONDUIT   1295.16     0  02:26      2.28    0.29    0.50
  YS02001580YS02001583 CONDUIT     76.29     0  02:14      0.54    0.30    1.00
  YS02001583YS02001586 CONDUIT    130.61     0  02:14      0.53    0.20    1.00
  YS02001586YS02001590 CONDUIT    318.05     0  02:36      1.26    0.56    1.00
  YS02001590YS02001593 CONDUIT    318.11     0  02:36      1.13    2.00    1.00
  YS02001593YS02001596 CONDUIT    318.15     0  02:36      1.73    0.50    1.00
  YS02001596YS02001600 CONDUIT    318.13     0  02:36      1.25    0.62    1.00
  YS02001600YS02001601 CONDUIT    317.94     0  02:36      1.12    0.55    1.00
  YS02001601YS02001602 CONDUIT    489.67     0  02:14      1.73    1.77    1.00
  YS02001602YS02001605 CONDUIT    489.24     0  02:14      1.73   10.35    1.00
  YS02001605YS02001607 CONDUIT    489.21     0  02:14      1.73    2.68    1.00
  YS02001607YS02001610 CONDUIT    491.14     0  02:13      0.63    0.47    1.00
  YS02001610YS02001613 CONDUIT    493.84     0  02:13      0.63    0.57    1.00
  YS02001613YS02001616 CONDUIT    495.96     0  02:13      0.64    0.43    1.00
  YS02001616YS02001619 CONDUIT    488.84     0  02:14      0.66    0.85    1.00
  YS02001619YS02001622 CONDUIT    897.47     0  02:17      1.16    1.32    1.00
  YS02001622YS02001625 CONDUIT    896.42     0  02:16      1.14    0.48    1.00
  YS02001625YS02001629 CONDUIT    896.49     0  02:16      1.14    0.43    1.00
  YS02001629YS02163301 CONDUIT    899.50     0  02:16      1.15    1.11    1.00
  YS02001633YS02163601 CONDUIT   1256.97     0  02:17      1.60    1.32    1.00
  YS02001641YS02001644 CONDUIT   1258.96     0  02:17      1.60    4.07    1.00
  YS02001644YS02001647 CONDUIT   1577.88     0  02:17      2.04    0.93    1.00
  YS02001647YS02001649 CONDUIT   1582.26     0  02:18      2.16    0.84    1.00
  YS02001649YS02001757 CONDUIT   1761.59     0  02:19      2.24    1.07    1.00
  YS02001652YS02001649 CONDUIT    671.81     0  02:25      0.86    0.33    1.00
  YS02001655YS02001652 CONDUIT    669.17     0  02:25      1.24    0.32    1.00
  YS02001658YS02001655 CONDUIT    667.79     0  02:25      1.81    0.28    1.00
  YS02001661YS02001658 CONDUIT    666.16     0  02:25      2.13    0.26    1.00
  YS02001664YS02001661 CONDUIT    843.29     0  02:25      2.04    0.26    0.70
  YS02001745YS02001748 CONDUIT    450.68     0  02:22      1.93    0.17    0.86
  YS02001748YS02001751 CONDUIT    379.74     0  02:24      1.53    0.19    1.00
  YS02001751YS02001754 CONDUIT    380.29     0  02:25      1.36    0.18    1.00
  YS02001754YS02001757 CONDUIT    379.52     0  02:25      0.48    0.15    1.00
  YS02001757CaochengTiaoxuchi CONDUIT   2936.31     0  02:24      3.74    1.27    1.00
  YS02001759YS02001757 CONDUIT   1183.93     0  02:24      1.51    0.84    1.00
  YS02001762YS02001759 CONDUIT    664.47     0  02:23      0.85    0.77    1.00
  YS02001765YS02001762 CONDUIT    664.40     0  02:23      0.85    0.62    1.00
  YS02001767YS02001765 CONDUIT    664.20     0  02:23      0.85    0.84    1.00
  YS02001770YS02001767 CONDUIT    663.59     0  02:23      0.84    2.63    1.00
  YS02001774YS02001770 CONDUIT    205.41     0  02:18      0.26    0.13    1.00
  YS02001779YS02001774 CONDUIT    201.26     0  02:18      0.26    0.10    1.00
  YS02001783YS02001784 CONDUIT   1154.81     0  02:23      2.30    1.59    1.00
  YS02001784YS02001785 CONDUIT   1155.59     0  02:23      2.30    2.69    1.00
  YS02001786YS02001788 CONDUIT   1155.35     0  02:23      2.47    2.23    1.00
  YS02001788YS02001790 CONDUIT   1166.36     0  02:23      2.71    0.86    1.00
  YS02001790YS02001791 CONDUIT   1290.33     0  02:24      3.42    1.40    1.00
  YS02001791YS02001793 CONDUIT   1232.74     0  02:29      6.73    0.53    1.00
  YS02001793JiankangQianchi CONDUIT   1256.28     0  02:23      2.53    0.10    1.00
  YS02001882YS02001884 CONDUIT     34.42     0  02:18      0.12    0.04    1.00
  YS02001884YS02001887 CONDUIT     50.27     0  02:17      0.08    0.07    1.00
  YS02001887YS02001890 CONDUIT    573.40     0  02:25      0.73    0.98    1.00
  YS02001890YS02001895 CONDUIT    514.98     0  02:26      0.66    0.24    1.00
  YS02001895YS02001898 CONDUIT    515.45     0  02:26      0.66    0.89    1.00
  YS02001898YS02001901 CONDUIT    515.74     0  02:26      0.66    0.33    1.00
  YS02001901YS02001904 CONDUIT    515.15     0  02:26      0.66    0.80    1.00
  YS02001904YS02001907 CONDUIT    515.34     0  02:26      0.66    0.18    1.00
  YS02001907YS02006553 CONDUIT    794.01     0  02:33      0.88    0.93    1.00
  YS02001910YS02001907 CONDUIT   1000.38     0  02:26      1.27    0.56    1.00
  YS02001915YS02001910 CONDUIT    999.97     0  02:26      1.27    0.50    1.00
  YS02001918YS02001915 CONDUIT    456.91     0  02:22      0.58    0.25    1.00
  YS02001920YS02001918 CONDUIT    455.36     0  02:22      0.63    0.44    1.00
  YS02001923YS02001920 CONDUIT    451.04     0  02:22      0.70    0.20    1.00
  YS02001926YS02001923 CONDUIT    422.57     0  02:22      0.96    0.60    1.00
  YS02001929YS02001926 CONDUIT    417.84     0  02:22      1.10    0.20    1.00
  YS02006553YS02006556 CONDUIT    793.86     0  02:33      1.01    0.68    1.00
  YS02006556YS02006558 CONDUIT    791.92     0  02:33      1.01    0.63    1.00
  YS02006558YS02006561 CONDUIT   1154.50     0  02:23      4.08    2.55    1.00
  YS02006561YS02001783 CONDUIT   1154.76     0  02:23      2.30    0.60    1.00
  YS02163301YS02001633 CONDUIT    898.41     0  02:16      1.14    0.84    1.00
  YS02163601YS02164001 CONDUIT   1256.24     0  02:17      1.60    1.11    1.00
  YS02164001YS02001641 CONDUIT   1259.38     0  02:17      1.60    1.72    1.00
  YSB1154YSB6556       CONDUIT    325.71     0  02:25      0.85    0.59    1.00
  YSB1171HS02004479    CONDUIT    393.21     0  02:20      0.78    0.26    1.00
  YSB1174YSB1171       CONDUIT    270.90     0  02:25      0.70    0.42    1.00
  YSB6556YSB1171       CONDUIT    326.40     0  02:25      0.85    0.34    1.00
  CC-R1                PUMP       683.00     0  00:00              1.00
  CC-R2                PUMP       683.00     0  00:00              1.00
  CC-S1                PUMP       200.00     0  00:00              1.00
  CC-S2                PUMP       200.00     0  00:00              1.00
  JK-R1                PUMP      1000.00     0  00:00              1.00
  JK-R2                PUMP      1000.00     0  00:00              1.00
  JK-S                 PUMP       300.00     0  00:00              1.00
  XR-1                 PUMP        95.00     0  00:00              1.00
  XR-2                 PUMP        95.00     0  00:00              1.00
  XR-3                 PUMP        95.00     0  00:00              1.00
  XR-4                 PUMP        95.00     0  00:00              1.00
  
  
  ***************************
  Flow Classification Summary
  ***************************
  
  -------------------------------------------------------------------------------------
                      Adjusted    ---------- Fraction of Time in Flow Class ---------- 
                       /Actual         Up    Down  Sub   Sup   Up    Down  Norm  Inlet 
  Conduit               Length    Dry  Dry   Dry   Crit  Crit  Crit  Crit  Ltd   Ctrl  
  -------------------------------------------------------------------------------------
  1                       1.00   0.00  0.00  0.00  0.00  1.00  0.00  0.00  0.31  0.00
  HS02004478WS02006287    1.00   0.12  0.00  0.00  0.61  0.27  0.00  0.00  0.59  0.00
  HS02004479HS02004480    1.00   0.03  0.00  0.00  0.97  0.00  0.00  0.00  0.11  0.00
  HS02004480HS02004478    1.00   0.10  0.00  0.00  0.49  0.00  0.00  0.41  0.00  0.00
  HS02004770HS02004777    1.00   0.00  0.09  0.00  0.91  0.00  0.00  0.00  0.03  0.00
  HS02004777HS02004785    1.00   0.00  0.00  0.00  1.00  0.00  0.00  0.00  0.12  0.00
  HS02004785HS02004788    1.00   0.00  0.00  0.00  1.00  0.00  0.00  0.00  0.00  0.00
  HS02004788HS02004792    1.00   0.00  0.00  0.00  0.99  0.01  0.00  0.00  0.91  0.00
  HS02004792HS02004799    1.00   0.00  0.00  0.00  0.99  0.01  0.00  0.00  0.87  0.00
  HS02004799HS02004480    1.00   0.00  0.02  0.00  0.88  0.00  0.09  0.00  0.00  0.00
  HS02004802HS02004478    1.00   0.10  0.00  0.00  0.90  0.00  0.00  0.00  0.03  0.00
  HS02004807HS02004802    1.00   0.09  0.00  0.00  0.89  0.00  0.00  0.01  0.00  0.00
  HS02004817HS02004807    1.00   0.00  0.09  0.00  0.91  0.00  0.00  0.00  0.01  0.00
  HS02004817HS02004824    1.00   0.00  0.00  0.00  1.00  0.00  0.00  0.00  0.83  0.00
  HS02004824HS02004830    1.00   0.00  0.00  0.00  1.00  0.00  0.00  0.00  0.01  0.00
  HS02004830HS02004837    1.00   0.00  0.00  0.00  1.00  0.00  0.00  0.00  0.89  0.00
  HS02004837HS02004842    1.00   0.00  0.00  0.00  1.00  0.00  0.00  0.00  0.11  0.00
  HS02004842HS02004848    1.00   0.00  0.09  0.00  0.91  0.00  0.00  0.00  0.57  0.00
  HS02004848HS02004852    1.00   0.09  0.00  0.00  0.91  0.00  0.00  0.00  0.69  0.00
  HS02004852HS02004856    1.00   0.09  0.01  0.00  0.90  0.00  0.00  0.00  0.69  0.00
  HS02004856HS02004862    1.00   0.00  0.12  0.00  0.88  0.00  0.00  0.00  0.75  0.00
  HS02004862HS02004870    1.00   0.00  0.00  0.00  1.00  0.00  0.00  0.00  0.03  0.00
  HS02004870HS02004876    1.00   0.00  0.00  0.00  0.99  0.01  0.00  0.00  0.87  0.00
  HS02004876HS02004881    1.00   0.02  0.00  0.00  0.79  0.20  0.00  0.00  0.00  0.00
  HS02004881HS02006253    1.00   0.03  0.01  0.00  0.40  0.01  0.00  0.56  0.17  0.00
  HS02004901HS02004770    1.00   0.09  0.00  0.00  0.91  0.00  0.00  0.00  0.00  0.00
  WS02001211WS02001212    1.00   0.00  0.02  0.00  0.98  0.00  0.00  0.00  0.00  0.00
  WS02001212WS02001213    1.00   0.02  0.00  0.00  0.44  0.00  0.54  0.00  0.00  0.00
  WS02001213WS02003059    1.00   0.00  0.00  0.00  1.00  0.00  0.00  0.00  0.00  0.00
  WS02003059WS02003060    1.00   0.00  0.00  0.00  1.00  0.00  0.00  0.00  0.03  0.00
  WS02003060WS02003069    1.00   0.00  0.00  0.00  0.99  0.01  0.00  0.00  0.52  0.00
  WS02003066WSF200        1.00   0.09  0.00  0.00  0.00  0.91  0.00  0.00  0.64  0.00
  WS02003067WS02003066    1.00   0.07  0.01  0.00  0.91  0.00  0.00  0.00  0.00  0.00
  WS02003069WS02003072    1.00   0.00  0.00  0.00  1.00  0.00  0.00  0.00  0.67  0.00
  WS02003072WS02003073    1.00   0.00  0.00  0.00  0.00  0.00  0.00  1.00  0.00  0.00
  WS02004138WS02004139    1.00   0.00  0.00  0.00  0.98  0.00  0.00  0.01  0.98  0.00
  WS02004139WS02001211    1.00   0.00  0.00  0.00  1.00  0.00  0.00  0.00  0.00  0.00
  WS02004401WS02004402    1.00   0.02  0.00  0.00  0.98  0.00  0.00  0.00  0.00  0.00
  WS02004402WS02004403    1.00   0.02  0.00  0.00  0.98  0.00  0.00  0.00  0.00  0.00
  WS02004403WS02004404    1.00   0.00  0.02  0.00  0.98  0.00  0.00  0.00  0.00  0.00
  WS02004404WS02004405    1.00   0.00  0.00  0.00  1.00  0.00  0.00  0.00  0.00  0.00
  WS02004405WS02004406    1.00   0.00  0.00  0.00  1.00  0.00  0.00  0.00  0.00  0.00
  WS02004406WS02004407    1.00   0.00  0.04  0.00  0.96  0.00  0.00  0.00  0.00  0.00
  WS02004407WS02004409    1.00   0.04  0.00  0.00  0.96  0.01  0.00  0.00  0.83  0.00
  WS02004409WS02004410    1.00   0.04  0.00  0.00  0.96  0.00  0.00  0.00  0.02  0.00
  WS02004410WS02004411    1.00   0.04  0.00  0.00  0.96  0.00  0.00  0.00  0.00  0.00
  WS02004411WS02004412    1.00   0.04  0.00  0.00  0.96  0.00  0.00  0.00  0.00  0.00
  WS02004412WS02004413    1.00   0.04  0.00  0.00  0.96  0.00  0.00  0.00  0.01  0.00
  WS02004413WS02003067    1.00   0.04  0.03  0.00  0.00  0.00  0.93  0.00  0.00  0.00
  WS02006109WS02006110    1.00   0.00  0.01  0.00  0.99  0.00  0.01  0.00  0.00  0.00
  WS02006110WS02006113    1.00   0.01  0.01  0.00  0.99  0.00  0.00  0.00  0.00  0.00
  WS02006111WS02006112    1.00   0.01  0.00  0.00  0.98  0.00  0.00  0.00  0.79  0.00
  WS02006112WS02006115    1.00   0.02  0.00  0.00  0.98  0.00  0.00  0.00  0.00  0.00
  WS02006113WS02006111    1.00   0.01  0.00  0.00  0.21  0.78  0.00  0.00  0.06  0.00
  WS02006115WS02006116    1.00   0.02  0.00  0.00  0.98  0.00  0.00  0.01  0.00  0.00
  WS02006116WS02004401    1.00   0.02  0.00  0.00  0.98  0.00  0.00  0.00  0.00  0.00
  WS02006228WS02006109    1.00   0.00  0.00  0.00  1.00  0.00  0.00  0.00  0.00  0.00
  WS02006229WS02006228    1.00   0.00  0.00  0.00  0.99  0.00  0.00  0.01  0.00  0.00
  WS02006230WS02006229    1.00   0.00  0.00  0.00  0.99  0.00  0.00  0.01  0.01  0.00
  WS02006231WS02006230    1.00   0.00  0.00  0.00  0.47  0.00  0.53  0.00  0.00  0.00
  WS02006232WS02006231    1.00   0.00  0.00  0.00  0.99  0.00  0.00  0.00  0.00  0.00
  WS02006234WS02006232    1.00   0.00  0.00  0.00  1.00  0.00  0.00  0.00  0.00  0.00
  WS02006235WS02006234    1.00   0.00  0.00  0.00  0.84  0.00  0.16  0.00  0.00  0.00
  WS02006238WS02006235    1.00   0.00  0.00  0.00  1.00  0.00  0.00  0.00  0.00  0.00
  WS02006239WS02006238    1.00   0.00  0.00  0.00  1.00  0.00  0.00  0.00  0.00  0.00
  WS02006240WS02006239    1.00   0.00  0.00  0.00  0.61  0.00  0.00  0.39  0.01  0.00
  WS02006242WS02006240    1.00   0.00  0.00  0.00  0.99  0.00  0.01  0.00  0.00  0.00
  WS02006243WS02006242    1.00   0.00  0.00  0.00  0.99  0.00  0.00  0.00  0.67  0.00
[...]
  WSF200WS02003060        1.00   0.00  0.09  0.00  0.50  0.41  0.00  0.00  0.58  0.00
  YS02001580YS02001583    1.00   0.27  0.48  0.00  0.25  0.00  0.00  0.00  0.64  0.00
  YS02001583YS02001586    1.00   0.37  0.28  0.00  0.34  0.00  0.00  0.00  0.65  0.00
  YS02001586YS02001590    1.00   0.09  0.00  0.00  0.54  0.03  0.00  0.34  0.36  0.00
  YS02001590YS02001593    1.00   0.09  0.01  0.00  0.11  0.00  0.79  0.00  0.00  0.00
  YS02001593YS02001596    1.00   0.10  0.00  0.00  0.14  0.01  0.00  0.75  0.02  0.00
  YS02001596YS02001600    1.00   0.10  0.00  0.00  0.23  0.02  0.00  0.65  0.05  0.00
  YS02001600YS02001601    1.00   0.09  0.01  0.00  0.90  0.00  0.00  0.00  0.62  0.00
  YS02001601YS02001602    1.00   0.09  0.01  0.00  0.90  0.00  0.00  0.00  0.00  0.00
  YS02001602YS02001605    1.00   0.10  0.00  0.00  0.90  0.00  0.00  0.00  0.00  0.00
  YS02001605YS02001607    1.00   0.10  0.00  0.00  0.90  0.00  0.00  0.00  0.00  0.00
  YS02001607YS02001610    1.00   0.10  0.00  0.00  0.90  0.00  0.00  0.00  0.01  0.00
  YS02001610YS02001613    1.00   0.09  0.00  0.00  0.91  0.00  0.00  0.00  0.00  0.00
  YS02001613YS02001616    1.00   0.09  0.00  0.00  0.91  0.00  0.00  0.00  0.00  0.00
  YS02001616YS02001619    1.00   0.09  0.00  0.00  0.91  0.00  0.00  0.00  0.00  0.00
  YS02001619YS02001622    1.00   0.09  0.00  0.00  0.91  0.00  0.00  0.00  0.34  0.00
  YS02001622YS02001625    1.00   0.09  0.00  0.00  0.91  0.00  0.00  0.00  0.04  0.00
  YS02001625YS02001629    1.00   0.09  0.04  0.00  0.17  0.00  0.70  0.00  0.00  0.00
  YS02001629YS02163301    1.00   0.11  0.01  0.00  0.88  0.00  0.00  0.00  0.00  0.00
  YS02001633YS02163601    1.00   0.00  0.00  0.00  1.00  0.00  0.00  0.00  0.15  0.00
  YS02001641YS02001644    1.00   0.00  0.00  0.00  1.00  0.00  0.00  0.00  0.00  0.00
  YS02001644YS02001647    1.00   0.00  0.13  0.00  0.87  0.00  0.00  0.00  0.00  0.00
  YS02001647YS02001649    1.00   0.00  0.13  0.00  0.78  0.09  0.00  0.00  0.30  0.00
  YS02001649YS02001757    1.00   0.00  0.00  0.00  0.89  0.10  0.00  0.00  0.19  0.00
  YS02001652YS02001649    1.00   0.00  0.00  0.00  0.97  0.03  0.00  0.00  0.18  0.00
  YS02001655YS02001652    1.00   0.00  0.00  0.00  0.67  0.09  0.00  0.24  0.59  0.00
  YS02001658YS02001655    1.00   0.00  0.10  0.00  0.53  0.37  0.00  0.00  0.71  0.00
  YS02001661YS02001658    1.00   0.10  0.00  0.00  0.44  0.46  0.00  0.00  0.71  0.00
  YS02001664YS02001661    1.00   0.09  0.00  0.00  0.77  0.14  0.00  0.00  0.86  0.00
  YS02001745YS02001748    1.00   0.00  0.00  0.00  0.09  0.00  0.00  0.90  0.04  0.00
  YS02001748YS02001751    1.00   0.00  0.00  0.00  0.77  0.23  0.00  0.00  0.75  0.00
  YS02001751YS02001754    1.00   0.00  0.00  0.00  0.36  0.03  0.00  0.61  0.26  0.00
  YS02001754YS02001757    1.00   0.00  0.00  0.00  1.00  0.00  0.00  0.00  0.26  0.00
  YS02001757CaochengTiaoxuchi    1.00   0.00  0.00  0.00  1.00  0.00  0.00  0.00  0.26  0.00
  YS02001759YS02001757    1.00   0.00  0.00  0.00  1.00  0.00  0.00  0.00  0.08  0.00
  YS02001762YS02001759    1.00   0.00  0.00  0.00  1.00  0.00  0.00  0.00  0.04  0.00
  YS02001765YS02001762    1.00   0.00  0.00  0.00  1.00  0.00  0.00  0.00  0.15  0.00
  YS02001767YS02001765    1.00   0.00  0.00  0.00  1.00  0.00  0.00  0.00  0.00  0.00
  YS02001770YS02001767    1.00   0.00  0.00  0.00  1.00  0.00  0.00  0.00  0.00  0.00
  YS02001774YS02001770    1.00   0.00  0.10  0.00  0.90  0.00  0.00  0.00  0.03  0.00
  YS02001779YS02001774    1.00   0.00  0.00  0.00  1.00  0.00  0.00  0.00  0.61  0.00
  YS02001783YS02001784    1.00   0.00  0.13  0.00  0.87  0.00  0.00  0.00  0.57  0.00
  YS02001784YS02001785    1.00   0.00  0.00  0.00  1.00  0.00  0.00  0.00  0.17  0.00
  YS02001786YS02001788    1.00   0.00  0.00  0.00  0.75  0.25  0.00  0.00  0.00  0.00
  YS02001788YS02001790    1.00   0.00  0.00  0.00  0.25  0.75  0.00  0.00  0.80  0.00
  YS02001790YS02001791    1.00   0.00  0.00  0.00  0.11  0.89  0.00  0.00  0.10  0.00
  YS02001791YS02001793    1.00   0.00  0.00  0.00  0.11  0.89  0.00  0.00  0.02  0.00
  YS02001793JiankangQianchi    1.00   0.00  0.00  0.00  0.98  0.01  0.00  0.00  0.87  0.00
  YS02001882YS02001884    1.00   0.11  0.01  0.00  0.88  0.00  0.00  0.00  0.00  0.00
  YS02001884YS02001887    1.00   0.04  0.04  0.00  0.92  0.00  0.00  0.00  0.00  0.00
  YS02001887YS02001890    1.00   0.00  0.00  0.00  0.98  0.00  0.02  0.00  0.00  0.00
  YS02001890YS02001895    1.00   0.00  0.12  0.00  0.88  0.00  0.00  0.00  0.00  0.00
  YS02001895YS02001898    1.00   0.12  0.00  0.00  0.86  0.00  0.01  0.00  0.00  0.00
  YS02001898YS02001901    1.00   0.12  0.00  0.00  0.88  0.00  0.00  0.00  0.01  0.00
  YS02001901YS02001904    1.00   0.12  0.00  0.00  0.88  0.00  0.00  0.00  0.00  0.00
  YS02001904YS02001907    1.00   0.00  0.12  0.00  0.88  0.00  0.00  0.00  0.00  0.00
  YS02001907YS02006553    1.00   0.00  0.02  0.00  0.98  0.00  0.00  0.00  0.00  0.00
  YS02001910YS02001907    1.00   0.00  0.00  0.00  0.98  0.00  0.00  0.02  0.12  0.00
  YS02001915YS02001910    1.00   0.00  0.00  0.00  0.97  0.03  0.00  0.00  0.16  0.00
  YS02001918YS02001915    1.00   0.00  0.00  0.00  0.98  0.01  0.00  0.00  0.77  0.00
  YS02001920YS02001918    1.00   0.00  0.00  0.00  1.00  0.00  0.00  0.00  0.00  0.00
  YS02001923YS02001920    1.00   0.00  0.00  0.00  1.00  0.00  0.00  0.00  0.94  0.00
  YS02001926YS02001923    1.00   0.00  0.05  0.00  0.05  0.00  0.90  0.00  0.00  0.00
  YS02001929YS02001926    1.00   0.00  0.09  0.00  0.91  0.00  0.00  0.00  0.84  0.00
  YS02006553YS02006556    1.00   0.01  0.00  0.00  0.99  0.00  0.00  0.00  0.03  0.00
  YS02006556YS02006558    1.00   0.00  0.00  0.00  1.00  0.00  0.00  0.00  0.00  0.00
  YS02006558YS02006561    1.00   0.13  0.00  0.00  0.05  0.81  0.00  0.00  0.18  0.00
  YS02006561YS02001783    1.00   0.13  0.00  0.00  0.13  0.74  0.00  0.00  0.71  0.00
  YS02163301YS02001633    1.00   0.00  0.11  0.00  0.89  0.00  0.00  0.00  0.00  0.00
  YS02163601YS02164001    1.00   0.00  0.06  0.00  0.94  0.00  0.00  0.00  0.00  0.00
  YS02164001YS02001641    1.00   0.00  0.06  0.00  0.94  0.00  0.00  0.00  0.05  0.00
  YSB1154YSB6556          1.00   0.09  0.00  0.00  0.91  0.00  0.00  0.00  0.02  0.00
  YSB1171HS02004479       1.00   0.03  0.00  0.00  0.96  0.00  0.00  0.01  0.10  0.00
  YSB1174YSB1171          1.00   0.04  0.03  0.00  0.93  0.00  0.00  0.00  0.00  0.00
  YSB6556YSB1171          1.00   0.03  0.06  0.00  0.91  0.00  0.00  0.00  0.00  0.00
  
  
  *************************
  Conduit Surcharge Summary
  *************************
  
  ----------------------------------------------------------------------------
                                                           Hours        Hours 
                         --------- Hours Full --------   Above Full   Capacity
  Conduit                Both Ends  Upstream  Dnstream   Normal Flow   Limited
  ----------------------------------------------------------------------------
  HS02004478WS02006287        0.40      0.40      0.57      0.01         0.01
  HS02004479HS02004480        0.57      0.57      0.60      0.01         0.01
  HS02004480HS02004478        0.49      0.56      0.49      1.64         0.49
  HS02004770HS02004777        0.47      0.47      0.48      0.11         0.06
  HS02004777HS02004785        0.43      0.43      0.48      0.01         0.01
  HS02004785HS02004788        0.41      0.43      0.41      1.31         0.40
  HS02004788HS02004792        0.41      0.41      0.53      0.01         0.01
  HS02004792HS02004799        0.53      0.53      0.66      0.01         0.01
  HS02004799HS02004480        0.56      0.56      0.66      0.76         0.01
  HS02004802HS02004478        0.51      0.51      0.58      0.01         0.01
  HS02004807HS02004802        0.55      0.55      0.57      0.17         0.18
  HS02004817HS02004807        0.55      0.55      1.12      0.01         0.01
  HS02004817HS02004824        0.42      0.42      1.12      0.01         0.01
  HS02004824HS02004830        0.39      0.39      0.42      0.01         0.01
  HS02004830HS02004837        0.35      0.35      0.39      0.01         0.01
  HS02004837HS02004842        0.35      0.35      0.48      0.01         0.01
  HS02004842HS02004848        0.30      0.30      0.48      0.01         0.01
  HS02004848HS02004852        0.30      0.30      0.33      0.03         0.01
  HS02004852HS02004856        0.33      0.33      0.35      0.02         0.01
  HS02004856HS02004862        0.32      0.32      0.35      0.01         0.01
  HS02004862HS02004870        0.35      0.35      0.37      0.10         0.09
  HS02004870HS02004876        0.37      0.37      0.43      0.01         0.01
  HS02004876HS02004881        0.42      0.43      0.42      1.34         0.41
  HS02004881HS02006253        0.42      0.42      1.37      0.01         0.01
  HS02004901HS02004770        0.47      0.47      0.47      0.01         0.01
  WS02003072WS02003073        0.01      0.01      0.01      2.35         0.01
  WS02004401WS02004402        1.44      1.44      1.45      1.22         1.22
  WS02004402WS02004403        1.45      1.45      1.46      1.44         1.44
  WS02004403WS02004404        1.46      1.46      1.54      0.01         0.01
  WS02004404WS02004405        1.53      1.54      1.53      2.69         1.53
  WS02004405WS02004406        1.51      1.53      1.51      1.69         1.51
  WS02004406WS02004407        0.01      0.01      1.51      0.01         0.01
  WS02004407WS02004409        0.01      0.01      0.95      0.01         0.01
  WS02004409WS02004410        0.88      0.95      0.88      1.31         0.88
  WS02004410WS02004411        0.78      0.88      0.78      1.40         0.78
  WS02004411WS02004412        0.69      0.78      0.69      1.43         0.69
  WS02004412WS02004413        0.69      0.69      1.17      0.01         0.01
  WS02004413WS02003067        0.01      0.01      1.17      0.01         0.01
  WS02006109WS02006110        1.63      1.63      2.06      1.63         0.01
  WS02006110WS02006113        1.14      1.14      2.03      0.23         0.01
  WS02006111WS02006112        1.12      1.12      2.29      0.01         0.01
  WS02006112WS02006115        1.33      1.33      1.73      0.01         0.01
  WS02006113WS02006111        1.13      1.14      1.13      1.20         1.13
  WS02006115WS02006116        1.35      1.35      1.35      1.30         1.29
  WS02006116WS02004401        1.44      1.44      1.44      1.41         1.41
  WS02006228WS02006109        1.99      2.06      1.99      2.37         1.99
  WS02006229WS02006228        1.97      2.00      1.97      2.27         1.97
  WS02006230WS02006229        2.12      2.19      2.12      2.66         1.01
  WS02006231WS02006230        1.49      1.49      1.53      2.27         0.93
  WS02006232WS02006231        1.51      1.51      1.68      0.01         0.13
  WS02006234WS02006232        1.54      1.54      1.68      0.01         0.01
  WS02006235WS02006234        1.51      1.51      1.55      2.07         0.90
  WS02006238WS02006235        1.56      1.56      1.60      0.01         0.31
  WS02006239WS02006238        1.55      1.55      1.57      0.77         0.03
  WS02006240WS02006239        1.48      1.48      1.49      0.77         0.03
  WS02006242WS02006240        1.48      1.48      1.54      1.11         0.78
  WS02006243WS02006242        1.44      1.44      1.51      0.01         0.01
  WS02006245WS02006243        1.43      1.43      1.43      0.06         0.02
  WS02006247WS02006245        1.43      1.43      1.43      1.75         0.33
  WS02006248WS02006247        1.42      1.42      1.43      0.01         0.01
  WS02006249WS02006248        1.42      1.42      1.42      0.75         0.01
  WS02006251WS02006249        1.41      1.41      1.42      1.37         1.31
  WS02006252WS02006251        1.43      1.43      1.46      0.92         0.01
  WS02006253WS02006251        1.41      1.41      1.42      0.68         0.01
  WS02006256WS02006235        2.56      2.57      7.97      0.66         0.01
  WS02006280WS02006229        0.69      0.69      0.82      0.01         0.01
  WS02006284WS02006280        0.59      0.59      0.67      0.01         0.01
  WS02006287WS02006284        0.49      0.49      0.60      0.21         0.21
  YS02001580YS02001583        0.45      0.45      0.48      0.01         0.01
  YS02001583YS02001586        0.45      0.45      0.56      0.01         0.01
  YS02001586YS02001590        0.57      0.57      0.63      0.01         0.01
  YS02001590YS02001593        0.64      0.64      0.66      0.65         0.01
  YS02001593YS02001596        0.65      0.65      0.75      0.01         0.01
  YS02001596YS02001600        0.80      0.80      0.91      0.01         0.01
  YS02001600YS02001601        0.98      0.98      1.25      0.01         0.01
  YS02001601YS02001602        1.14      1.14      1.30      0.90         0.01
  YS02001602YS02001605        1.09      1.09      1.14      2.15         0.01
  YS02001605YS02001607        1.05      1.09      1.05      1.21         1.04
  YS02001607YS02001610        0.62      0.62      0.65      0.01         0.01
  YS02001610YS02001613        0.62      0.62      0.65      0.01         0.01
  YS02001613YS02001616        0.58      0.58      0.62      0.01         0.01
  YS02001616YS02001619        0.56      0.56      0.58      0.01         0.01
  YS02001619YS02001622        0.56      0.56      0.56      0.63         0.52
  YS02001622YS02001625        0.56      0.56      0.74      0.01         0.01
  YS02001625YS02001629        0.52      0.52      0.74      0.01         0.01
  YS02001629YS02163301        0.74      0.74      0.75      0.06         0.12
  YS02001633YS02163601        0.77      0.77      0.80      0.26         0.25
  YS02001641YS02001644        0.68      0.71      0.68      1.35         0.67
  YS02001644YS02001647        0.49      0.49      0.68      0.01         0.01
  YS02001647YS02001649        0.49      0.49      0.61      0.01         0.01
  YS02001649YS02001757        0.61      0.61      0.68      0.04         0.04
  YS02001652YS02001649        0.45      0.45      0.61      0.01         0.01
  YS02001655YS02001652        0.31      0.31      0.44      0.01         0.01
  YS02001658YS02001655        0.15      0.15      0.31      0.01         0.01
  YS02001661YS02001658        0.01      0.01      0.15      0.01         0.01
  YS02001664YS02001661        0.01      0.01      0.01      0.01         0.01
  YS02001745YS02001748        0.01      0.01      0.09      0.01         0.01
  YS02001748YS02001751        0.13      0.13      0.23      0.01         0.01
  YS02001751YS02001754        0.22      0.22      0.37      0.01         0.01
  YS02001754YS02001757        0.40      0.40      0.68      0.01         0.01
  YS02001757CaochengTiaoxuchi        0.68      0.68      5.92      0.23         0.23
  YS02001759YS02001757        0.59      0.59      0.68      0.01         0.01
  YS02001762YS02001759        0.56      0.56      0.59      0.01         0.01
  YS02001765YS02001762        0.51      0.51      0.56      0.01         0.01
  YS02001767YS02001765        0.48      0.48      0.51      0.01         0.02
  YS02001770YS02001767        0.48      0.48      0.48      0.32         0.29
  YS02001774YS02001770        0.47      0.47      0.53      0.01         0.01
  YS02001779YS02001774        0.36      0.36      0.53      0.01         0.01
  YS02001783YS02001784        0.49      0.50      0.50      0.52         0.43
  YS02001784YS02001785        0.45      0.50      0.45      0.78         0.45
  YS02001786YS02001788        0.23      0.45      0.23      0.67         0.23
  YS02001788YS02001790        0.23      0.23      0.51      0.01         0.01
  YS02001790YS02001791        0.51      0.51      0.56      0.28         0.04
  YS02001791YS02001793        0.56      0.56      0.68      0.01         0.01
  YS02001793JiankangQianchi        0.65      0.65      7.70      0.01         0.01
  YS02001882YS02001884        0.37      0.37      0.38      0.01         0.01
  YS02001884YS02001887        0.40      0.40      0.41      0.01         0.01
  YS02001887YS02001890        0.42      0.42      0.44      0.01         0.01
  YS02001890YS02001895        0.35      0.35      0.45      0.01         0.01
  YS02001895YS02001898        0.35      0.35      0.35      0.01         0.01
  YS02001898YS02001901        0.36      0.36      0.40      0.01         0.01
  YS02001901YS02001904        0.39      0.39      0.40      0.01         0.01
  YS02001904YS02001907        0.39      0.39      0.66      0.01         0.01
  YS02001907YS02006553        0.79      0.79      0.84      0.01         0.01
  YS02001910YS02001907        0.45      0.45      0.64      0.01         0.01
  YS02001915YS02001910        0.36      0.36      0.45      0.01         0.01
  YS02001918YS02001915        0.27      0.27      0.36      0.01         0.01
  YS02001920YS02001918        0.27      0.27      0.28      0.01         0.01
  YS02001923YS02001920        0.20      0.20      0.28      0.01         0.01
  YS02001926YS02001923        0.01      0.01      0.01      0.01         0.01
  YS02001929YS02001926        0.01      0.01      0.01      0.01         0.01
  YS02006553YS02006556        0.54      0.54      0.66      0.01         0.01
  YS02006556YS02006558        0.59      0.59      0.67      0.01         0.01
  YS02006558YS02006561        0.36      0.53      0.36      0.74         0.36
  YS02006561YS02001783        0.29      0.29      0.50      0.01         0.01
  YS02163301YS02001633        0.75      0.75      0.79      0.01         0.01
  YS02163601YS02164001        0.71      0.71      0.80      0.07         0.01
  YS02164001YS02001641        0.71      0.71      0.71      0.59         0.51
  YSB1154YSB6556              0.63      0.63      0.78      0.01         0.01
  YSB1171HS02004479           0.52      0.52      0.78      0.01         0.01
  YSB1174YSB1171              0.70      0.70      1.04      0.01         0.01
  YSB6556YSB1171              0.63      0.63      1.19      0.01         0.01
  
  
  ***************
  Pumping Summary
  ***************
  
  ---------------------------------------------------------------------------------------------------------
                                                  Min       Avg       Max     Total     Power    % Time Off
                        Percent   Number of      Flow      Flow      Flow    Volume     Usage    Pump Curve
  Pump                 Utilized   Start-Ups       LPS       LPS       LPS  10^6 ltr     Kw-hr    Low   High
  ---------------------------------------------------------------------------------------------------------
  CC-R1                   16.75           3      0.00    683.00    683.00     3.294     62.20    0.0    6.2
  CC-R2                   11.19           2      0.00    683.00    683.00     2.201     42.06    0.0    9.3
  CC-S1                   96.88           3      0.00     42.04    200.00     0.887      5.36    0.0    0.0
  CC-S2                   95.91           4      0.00     74.47    200.00     1.307      7.93    0.0    0.0
  JK-R1                   15.03          10      0.00    328.36   1000.00     1.360     15.54    0.0    0.0
  JK-R2                   11.73           3      0.00    106.91   1000.00     0.408      4.34    0.0    0.0
  JK-S                    28.78           6      0.00     90.68    300.00     1.061      9.84    0.0    0.0
  XR-1                    97.91           2      0.00     95.00     95.00     2.679      9.63    0.0    0.0
  XR-2                    93.95           2      0.00     95.00     95.00     2.570      8.79    0.0    0.0
  XR-3                     0.00           1      0.00     95.00     95.00     0.000      0.00    0.0    0.0
  XR-4                     0.00           1      0.00     95.00     95.00     0.000      0.00    0.0    0.0
  

  Analysis begun on:  Sun Jun 25 21:04:40 2023
  Analysis ended on:  Sun Jun 25 21:04:52 2023
  Total elapsed time: 00:00:12