
  OWA STORM WATER MANAGEMENT MODEL - VERSION v5.1.14 (OWA 2022-07-31)
  --------------------------------------------------------------

  WARNING 04: minimum elevation drop used for Conduit WS02004404WS02004405
  WARNING 03: negative offset ignored for Link YS02001904YS02001907
  
  *********************************************************
  NOTE: The summary statistics displayed in this report are
  based on results found at every computational time step,  
  not just on results from each reporting time step.
  *********************************************************
  
  ****************
  Analysis Options
  ****************
  Flow Units ............... LPS
  Process Models:
    Rainfall/Runoff ........ YES
    RDII ................... NO
    Snowmelt ............... NO
    Groundwater ............ NO
    Flow Routing ........... YES
    Ponding Allowed ........ NO
    Water Quality .......... NO
  Infiltration Method ...... HORTON
  Flow Routing Method ...... DYNWAVE
  Surcharge Method ......... EXTRAN
  Starting Date ............ 08/28/2015 08:00:00
  Ending Date .............. 08/28/2015 16:00:00
  Antecedent Dry Days ...... 8.0
  Report Time Step ......... 00:01:00
  Wet Time Step ............ 00:01:00
  Dry Time Step ............ 00:01:00
  Routing Time Step ........ 30.00 sec
  Variable Time Step ....... YES
  Maximum Trials ........... 8
  Number of Threads ........ 1
  Head Tolerance ........... 0.001500 m
  
  
  **************************        Volume         Depth
  Runoff Quantity Continuity     hectare-m            mm
  **************************     ---------       -------
  Initial LID Storage ......         0.072         1.184
  Total Precipitation ......         3.192        52.691
  Evaporation Loss .........         0.000         0.000
  Infiltration Loss ........         0.193         3.188
  Surface Runoff ...........         2.414        39.849
  Final Storage ............         0.658        10.859
  Continuity Error (%) .....        -0.039
  
  
  **************************        Volume        Volume
  Flow Routing Continuity        hectare-m      10^6 ltr
  **************************     ---------     ---------
  Dry Weather Inflow .......         0.630         6.296
  Wet Weather Inflow .......         2.414        24.139
  Groundwater Inflow .......         0.000         0.000
  RDII Inflow ..............         0.000         0.000
  External Inflow ..........         0.105         1.045
  External Outflow .........         1.916        19.161
  Flooding Loss ............         1.226        12.256
  Evaporation Loss .........         0.000         0.000
  Exfiltration Loss ........         0.000         0.000
  Initial Stored Volume ....         0.303         3.031
  Final Stored Volume ......         0.320         3.199
  Continuity Error (%) .....        -0.307
  
  
  *************************
  Highest Continuity Errors
  *************************
  Node YS02001583 (-13.62%)
  Node YS02001884 (5.02%)
  Node YS02001774 (1.89%)
  Node HS02004842 (1.89%)
  Node WS02006256 (1.84%)
  
  
  ***************************
  Time-Step Critical Elements
  ***************************
  Link WS02006280WS02006229 (63.51%)
  Link WS02006238WS02006235 (8.33%)
  Link WS02004404WS02004405 (6.67%)
  Link YS02001791YS02001793 (5.81%)
  Link WS02006252WS02006251 (2.71%)
  
  
  ********************************
  Highest Flow Instability Indexes
  ********************************
  Link WS02006113WS02006111 (24)
  Link WS02006256WS02006235 (21)
  Link WS02004404WS02004405 (21)
  Link WS02006229WS02006228 (19)
  Link WS02006238WS02006235 (18)
  
  
  *************************
  Routing Time Step Summary
  *************************
  Minimum Time Step           :     0.00 sec
  Average Time Step           :     2.86 sec
  Maximum Time Step           :     6.46 sec
  Percent in Steady State     :    -0.00
  Average Iterations per Step :     3.63
  Percent Not Converging      :    17.86
  
  
  ***************************
  Subcatchment Runoff Summary
  ***************************
  
  ------------------------------------------------------------------------------------------------------------------------------
                            Total      Total      Total      Total     Imperv       Perv      Total       Total     Peak  Runoff
                           Precip      Runon       Evap      Infil     Runoff     Runoff     Runoff      Runoff   Runoff   Coeff
  Subcatchment                 mm         mm         mm         mm         mm         mm         mm    10^6 ltr      LPS
  ------------------------------------------------------------------------------------------------------------------------------
  sub0                      52.69       0.00       0.00       0.97      47.76       2.72      50.48        0.04    34.06   0.958
  sub1                      52.69       0.00       0.00       1.45      40.92       3.75      44.67        0.30   202.25   0.848
  sub10                     52.69       0.00       0.00       0.93      38.35       2.50      40.85        0.45   321.36   0.775
  sub11                     52.69       0.00       0.00       0.85      35.65       2.33      37.98        0.44   340.29   0.721
  sub12                     52.69       0.00       0.00       1.49      36.24       4.07      40.31        0.35   289.92   0.765
  sub14                     52.69       0.00       0.00       0.92      33.76       2.51      36.27        0.35   261.22   0.688
  sub15                     52.69       0.00       0.00       4.12      30.35       9.23      39.58        0.68   438.54   0.751
  sub16                     52.69       0.00       0.00       4.39      29.60      10.58      40.18        0.42   301.33   0.763
  sub17                     52.69       0.00       0.00       4.70      32.67      11.09      43.76        0.38   260.31   0.831
  sub2                      52.69       0.00       0.00       6.49      29.91      11.57      41.48        0.39   201.68   0.787
  sub22                     52.69       0.00       0.00       7.29      28.33      14.65      42.98        2.72  1585.44   0.816
  sub23                     52.69       0.00       0.00       5.49      29.17      12.10      41.27        1.97  1259.24   0.783
  sub3                      52.69       0.00       0.00       6.94      29.61      10.95      40.57        0.91   427.36   0.770
  sub4                      52.69       0.00       0.00       1.57      40.29       3.56      43.85        0.91   466.62   0.832
  sub5                      52.69       0.00       0.00       0.83      39.59       2.24      41.82        0.47   329.71   0.794
  sub60                     52.69       0.00       0.00       1.32      34.86       3.56      38.42        0.50   391.89   0.729
  sub61                     52.69       0.00       0.00       2.02      34.83       5.30      40.14        0.74   566.33   0.762
  sub62                     52.69       0.00       0.00       0.90      37.13       2.42      39.55        1.08   765.88   0.751
  sub63                     52.69       0.00       0.00       3.68      29.83       8.83      38.67        0.88   617.83   0.734
  sub64                     52.69       0.00       0.00       1.77      33.97       4.39      38.36        0.92   612.89   0.728
  sub65                     52.69       0.00       0.00       1.62      36.66       4.01      40.66        1.12   709.42   0.772
  sub66                     52.69       0.00       0.00       4.27      28.84       7.84      36.68        1.71   878.52   0.696
  sub67                     52.69       0.00       0.00       0.90      38.07       2.50      40.57        0.75   614.55   0.770
  sub68                     52.69       0.00       0.00       1.55      33.62       4.07      37.69        1.04   767.92   0.715
  sub69                     52.69       0.00       0.00       1.39      35.42       4.88      40.29        1.49   926.17   0.765
  sub7                      52.69       0.00       0.00       0.98      36.18       2.69      38.88        0.13   103.01   0.738
  sub70                     52.69       0.00       0.00       4.65      28.37      10.01      38.38        1.11   506.52   0.728
  sub71                     52.69       0.00       0.00       0.83      33.73       2.19      35.91        0.94   625.42   0.682
  sub72                     52.69       0.00       0.00       0.79      36.43       2.03      38.46        0.53   314.20   0.730
  sub8                      52.69       0.00       0.00       0.96      35.16       2.61      37.78        0.24   183.90   0.717
  sub9                      52.69       0.00       0.00       0.93      34.09       2.53      36.62        0.18   133.92   0.695
  

  ***********************
  LID Performance Summary
  ***********************

  --------------------------------------------------------------------------------------------------------------------
                                         Total      Evap     Infil   Surface    Drain    Initial     Final  Continuity
                                        Inflow      Loss      Loss   Outflow   Outflow   Storage   Storage       Error
  Subcatchment      LID Control             mm        mm        mm        mm        mm        mm        mm           %
  --------------------------------------------------------------------------------------------------------------------
  sub1              GreenRoof            52.69      0.00      0.00      0.00      0.00      7.05     59.79       -0.07
  sub10             GreenRoof            52.69      0.00      0.00      0.00      0.00      7.05     59.79       -0.07
  sub11             GreenRoof            52.69      0.00      0.00      0.00      0.00      7.05     59.79       -0.07
  sub12             GreenRoof            52.69      0.00      0.00      0.00      0.00      7.05     59.79       -0.07
  sub14             GreenRoof            52.69      0.00      0.00      0.00      0.00      7.05     59.79       -0.07
  sub15             GreenRoof            52.69      0.00      0.00      0.00      0.00      7.05     59.79       -0.07
  sub16             GreenRoof            52.69      0.00      0.00      0.00      0.00      7.05     59.79       -0.07
  sub17             GreenRoof            52.69      0.00      0.00      0.00      0.00      7.05     59.79       -0.07
  sub2              GreenRoof            52.69      0.00      0.00      0.00      0.00      7.05     59.79       -0.07
  sub22             GreenRoof            52.69      0.00      0.00      0.00      0.00      7.05     59.79       -0.07
  sub23             GreenRoof            52.69      0.00      0.00      0.00      0.00      7.05     59.79       -0.07
  sub3              GreenRoof            52.69      0.00      0.00      0.00      0.00      7.05     59.79       -0.07
  sub4              GreenRoof            52.69      0.00      0.00      0.00      0.00      7.05     59.79       -0.07
  sub5              GreenRoof            52.69      0.00      0.00      0.00      0.00      7.05     59.79       -0.07
  sub60             GreenRoof            52.69      0.00      0.00      0.00      0.00      7.05     59.79       -0.07
  sub61             GreenRoof            52.69      0.00      0.00      0.00      0.00      7.05     59.79       -0.07
  sub62             GreenRoof            52.69      0.00      0.00      0.00      0.00      7.05     59.79       -0.07
  sub63             GreenRoof            52.69      0.00      0.00      0.00      0.00      7.05     59.79       -0.07
  sub64             GreenRoof            52.69      0.00      0.00      0.00      0.00      7.05     59.79       -0.07
  sub65             GreenRoof            52.69      0.00      0.00      0.00      0.00      7.05     59.79       -0.07
  sub66             GreenRoof            52.69      0.00      0.00      0.00      0.00      7.05     59.79       -0.07
  sub67             GreenRoof            52.69      0.00      0.00      0.00      0.00      7.05     59.79       -0.07
  sub68             GreenRoof            52.69      0.00      0.00      0.00      0.00      7.05     59.79       -0.07
  sub69             GreenRoof            52.69      0.00      0.00      0.00      0.00      7.05     59.79       -0.07
  sub7              GreenRoof            52.69      0.00      0.00      0.00      0.00      7.05     59.79       -0.07
  sub70             GreenRoof            52.69      0.00      0.00      0.00      0.00      7.05     59.79       -0.07
  sub71             GreenRoof            52.69      0.00      0.00      0.00      0.00      7.05     59.79       -0.07
  sub72             GreenRoof            52.69      0.00      0.00      0.00      0.00      7.05     59.79       -0.07
  sub8              GreenRoof            52.69      0.00      0.00      0.00      0.00      7.05     59.79       -0.07
  sub9              GreenRoof            52.69      0.00      0.00      0.00      0.00      7.05     59.79       -0.07
  
  ******************
  Node Depth Summary
  ******************
  
  ---------------------------------------------------------------------------------
                                 Average  Maximum  Maximum  Time of Max    Reported
                                   Depth    Depth      HGL   Occurrence   Max Depth
  Node                 Type       Meters   Meters   Meters  days hr:min      Meters
  ---------------------------------------------------------------------------------
  HS02004478           JUNCTION     0.23     1.57    10.80     0  01:49        1.53
  HS02004479           JUNCTION     0.31     1.68    10.89     0  01:49        1.66
  HS02004480           JUNCTION     0.28     1.65    10.90     0  01:49        1.62
  HS02004770           JUNCTION     0.28     1.42    11.25     0  01:46        1.42
  HS02004777           JUNCTION     0.30     1.48    11.28     0  01:46        1.48
  HS02004785           JUNCTION     0.20     1.49    11.39     0  01:46        1.41
  HS02004788           JUNCTION     0.16     1.42    11.32     0  01:46        1.42
  HS02004792           JUNCTION     0.22     1.60    11.12     0  01:45        1.60
  HS02004799           JUNCTION     0.34     1.76    10.97     0  01:47        1.76
  HS02004802           JUNCTION     0.33     1.77    10.90     0  01:49        1.70
  HS02004807           JUNCTION     0.30     1.88    11.05     0  01:49        1.76
  HS02004817           JUNCTION     0.60     2.32    11.16     0  01:49        2.13
  HS02004824           JUNCTION     0.16     1.87    11.27     0  01:49        1.77
  HS02004830           JUNCTION     0.16     2.03    11.50     0  01:47        1.73
  HS02004837           JUNCTION     0.13     2.04    11.62     0  01:47        1.69
  HS02004842           JUNCTION     0.43     2.22    11.49     0  01:49        2.14
  HS02004848           JUNCTION     0.11     1.95    11.55     0  01:49        1.84
  HS02004852           JUNCTION     0.12     2.00    11.51     0  01:49        1.77
  HS02004856           JUNCTION     0.18     2.05    11.48     0  01:49        1.62
  HS02004862           JUNCTION     0.14     2.00    11.38     0  01:49        1.59
  HS02004870           JUNCTION     0.13     2.10    11.39     0  01:49        1.59
  HS02004876           JUNCTION     0.19     2.26    11.29     0  01:49        1.71
  HS02004881           JUNCTION     0.14     2.15    11.18     0  01:49        1.50
  HS02004901           JUNCTION     0.29     1.42    11.24     0  01:46        1.42
  WS02001211           JUNCTION     0.63     0.83     5.67     0  01:52        0.83
  WS02001212           JUNCTION     0.38     0.59     5.65     0  01:51        0.58
  WS02001213           JUNCTION     0.59     0.88     5.64     0  01:53        0.88
  WS02003059           JUNCTION     0.65     0.96     5.64     0  01:53        0.95
  WS02003060           JUNCTION     0.37     0.69     5.62     0  01:54        0.69
  WS02003066           JUNCTION     0.22     0.45     6.01     0  01:52        0.45
  WS02003067           JUNCTION     0.53     0.89     6.21     0  01:46        0.89
  WS02003069           JUNCTION     0.42     0.78     5.36     0  01:54        0.78
  WS02003072           JUNCTION     0.48     0.81     5.18     0  01:55        0.81
  WS02003073           JUNCTION     0.29     0.51     4.58     0  01:55        0.51
  WS02004138           JUNCTION     0.13     0.14     7.39     0  00:29        0.14
  WS02004139           JUNCTION     0.57     0.76     5.67     0  01:52        0.76
  WS02004401           JUNCTION     0.74     1.86     7.86     0  01:53        1.86
  WS02004402           JUNCTION     0.76     1.85     7.81     0  01:53        1.85
  WS02004403           JUNCTION     0.77     1.83     7.76     0  01:53        1.83
  WS02004404           JUNCTION     0.83     1.75     7.60     0  01:53        1.74
  WS02004405           JUNCTION     0.82     1.71     7.56     0  01:53        1.71
  WS02004406           JUNCTION     0.81     1.56     7.39     0  01:53        1.55
  WS02004407           JUNCTION     0.25     0.91     7.22     0  01:50        0.91
  WS02004409           JUNCTION     0.50     1.37     7.14     0  01:50        1.37
  WS02004410           JUNCTION     0.51     1.29     7.01     0  01:50        1.28
  WS02004411           JUNCTION     0.52     1.55     7.23     0  01:45        1.19
  WS02004412           JUNCTION     0.52     1.10     6.74     0  01:53        1.10
  WS02004413           JUNCTION     0.66     1.15     6.62     0  01:53        1.14
  WS02006109           JUNCTION     0.94     2.64     9.26     0  01:47        2.64
  WS02006110           JUNCTION     0.88     2.39     8.97     0  01:43        2.38
  WS02006111           JUNCTION     0.41     1.82     8.53     0  01:43        1.70
  WS02006112           JUNCTION     0.95     2.41     8.29     0  01:43        2.34
  WS02006113           JUNCTION     0.48     2.08     8.98     0  01:43        1.81
  WS02006115           JUNCTION     0.66     1.93     8.07     0  01:43        1.93
  WS02006116           JUNCTION     0.73     2.00     8.04     0  01:53        2.00
  WS02006228           JUNCTION     1.00     3.03     9.68     0  01:53        3.02
  WS02006229           JUNCTION     1.00     3.24     9.94     0  01:53        3.24
  WS02006230           JUNCTION     0.92     2.65     9.39     0  01:44        2.65
  WS02006231           JUNCTION     0.64     2.19     9.31     0  01:44        2.19
  WS02006232           JUNCTION     0.73     2.18     9.22     0  01:44        2.18
  WS02006234           JUNCTION     0.60     1.96     9.12     0  01:44        1.96
  WS02006235           JUNCTION     0.61     2.00     9.16     0  01:45        2.00
  WS02006238           JUNCTION     0.63     2.08     9.22     0  01:46        2.05
  WS02006239           JUNCTION     0.57     1.99     9.20     0  02:25        1.95
  WS02006240           JUNCTION     0.52     2.10     9.39     0  02:25        1.77
  WS02006242           JUNCTION     0.55     1.55     8.82     0  00:05        1.55
  WS02006243           JUNCTION     0.45     1.48     8.90     0  00:05        1.38
  WS02006245           JUNCTION     0.43     1.56     9.04     0  02:50        1.29
  WS02006247           JUNCTION     0.43     1.47     8.97     0  01:42        1.24
  WS02006248           JUNCTION     0.38     1.10     8.69     0  00:05        1.10
  WS02006249           JUNCTION     0.40     1.09     8.69     0  00:05        1.09
  WS02006251           JUNCTION     0.51     2.21     9.88     0  01:49        2.21
  WS02006252           JUNCTION     0.33     1.50     9.74     0  00:00        1.50
  WS02006253           JUNCTION     0.58     3.52    11.16     0  02:28        3.52
  WS02006256           JUNCTION     0.88     2.35     9.28     0  00:00        2.35
  WS02006280           JUNCTION     0.30     1.79    10.07     0  01:53        1.79
  WS02006284           JUNCTION     0.56     1.98    10.38     0  01:53        1.98
  WS02006287           JUNCTION     0.30     1.73    10.68     0  01:49        1.69
  WSF200               JUNCTION     0.21     0.52     5.75     0  01:54        0.52
  YS02001580           JUNCTION     0.07     1.05     9.59     0  01:47        0.79
  YS02001583           JUNCTION     0.11     1.14     9.64     0  01:47        0.82
  YS02001586           JUNCTION     0.18     1.13     9.30     0  01:47        1.13
  YS02001590           JUNCTION     0.27     1.40     9.26     0  02:01        1.40
  YS02001593           JUNCTION     0.20     1.35     9.21     0  01:47        1.30
  YS02001596           JUNCTION     0.28     1.73     9.14     0  01:46        1.68
  YS02001600           JUNCTION     0.35     1.87     9.00     0  01:46        1.87
  YS02001601           JUNCTION     0.54     2.06     8.90     0  01:45        2.06
  YS02001602           JUNCTION     0.45     1.87     8.77     0  01:45        1.87
  YS02001605           JUNCTION     0.42     1.78     8.68     0  01:59        1.78
  YS02001607           JUNCTION     0.41     1.65     8.49     0  01:54        1.64
  YS02001610           JUNCTION     0.45     1.68     8.48     0  01:47        1.68
  YS02001613           JUNCTION     0.41     1.70     8.54     0  01:47        1.70
  YS02001616           JUNCTION     0.34     1.61     8.52     0  01:47        1.59
  YS02001619           JUNCTION     0.32     1.61     8.54     0  01:47        1.59
  YS02001622           JUNCTION     0.30     1.62     8.52     0  01:47        1.57
  YS02001625           JUNCTION     0.56     1.78     8.38     0  01:47        1.78
  YS02001629           JUNCTION     0.42     1.85     8.40     0  01:47        1.85
  YS02001633           JUNCTION     0.50     2.03     8.48     0  01:50        2.01
  YS02001641           JUNCTION     0.48     2.10     8.54     0  01:53        2.10
  YS02001644           JUNCTION     0.47     1.92     8.35     0  01:49        1.92
  YS02001647           JUNCTION     0.25     1.77     8.38     0  01:53        1.77
  YS02001649           JUNCTION     0.27     1.92     8.31     0  01:53        1.92
  YS02001652           JUNCTION     0.16     1.88     8.48     0  01:50        1.67
  YS02001655           JUNCTION     0.12     1.90     8.75     0  01:50        1.46
  YS02001658           JUNCTION     0.09     1.74     8.88     0  01:50        1.21
  YS02001661           JUNCTION     0.13     1.05     8.46     0  01:51        1.01
  YS02001664           JUNCTION     0.06     0.52     8.45     0  01:51        0.30
  YS02001745           JUNCTION     0.05     0.83     8.35     0  01:50        0.77
  YS02001748           JUNCTION     0.07     1.80     8.88     0  01:50        1.15
  YS02001751           JUNCTION     0.09     1.95     8.83     0  01:50        1.30
  YS02001754           JUNCTION     0.12     1.86     8.47     0  01:50        1.56
  YS02001757           JUNCTION     0.27     1.95     8.21     0  01:50        1.93
  YS02001759           JUNCTION     0.21     1.90     8.27     0  01:53        1.90
  YS02001762           JUNCTION     0.21     2.15     8.55     0  01:53        2.15
  YS02001765           JUNCTION     0.19     2.10     8.55     0  01:53        2.10
  YS02001767           JUNCTION     0.19     2.03     8.52     0  01:53        2.03
  YS02001770           JUNCTION     0.20     1.95     8.44     0  01:49        1.95
  YS02001774           JUNCTION     0.27     2.05     8.47     0  01:49        2.05
  YS02001779           JUNCTION     0.10     1.68     8.37     0  01:49        1.68
  YS02001783           JUNCTION     0.23     1.32     7.47     0  01:49        1.22
  YS02001784           JUNCTION     0.25     1.19     7.26     0  01:49        1.12
  YS02001786           JUNCTION     0.21     1.00     7.03     0  01:48        0.86
  YS02001788           JUNCTION     0.15     0.62     6.60     0  01:51        0.62
  YS02001790           JUNCTION     0.18     0.72     6.36     0  01:55        0.72
  YS02001791           JUNCTION     0.11     0.43     5.90     0  01:51        0.42
  YS02001793           JUNCTION     0.06     0.28     5.12     0  01:54        0.28
  YS02001882           JUNCTION     0.29     1.83     8.55     0  01:48        1.62
  YS02001884           JUNCTION     0.37     1.93     8.55     0  01:48        1.72
  YS02001887           JUNCTION     0.45     1.93     8.47     0  01:48        1.79
  YS02001890           JUNCTION     0.48     1.81     8.32     0  01:48        1.81
  YS02001895           JUNCTION     0.26     1.64     8.38     0  01:48        1.56
  YS02001898           JUNCTION     0.26     1.77     8.51     0  01:48        1.65
  YS02001901           JUNCTION     0.37     1.72     8.33     0  01:49        1.67
  YS02001904           JUNCTION     0.35     1.67     8.30     0  01:53        1.67
  YS02001907           JUNCTION     0.67     1.96     8.25     0  01:49        1.96
  YS02001910           JUNCTION     0.47     2.00     8.51     0  01:49        1.80
  YS02001915           JUNCTION     0.28     1.96     8.68     0  01:49        1.65
  YS02001918           JUNCTION     0.14     1.81     8.88     0  01:49        1.38
  YS02001920           JUNCTION     0.22     2.14     9.15     0  01:49        1.53
  YS02001923           JUNCTION     0.10     2.03     9.29     0  01:49        1.40
  YS02001926           JUNCTION     0.14     1.90     9.35     0  01:49        1.23
  YS02001929           JUNCTION     0.08     1.78     9.47     0  01:49        1.03
  YS02006553           JUNCTION     0.67     1.99     8.27     0  01:49        1.97
  YS02006556           JUNCTION     0.65     1.99     8.30     0  01:49        1.94
  YS02006558           JUNCTION     0.69     2.04     8.31     0  01:49        1.98
  YS02006561           JUNCTION     0.14     1.03     7.69     0  01:49        0.87
  YS02163301           JUNCTION     0.45     1.93     8.44     0  01:50        1.92
  YS02163601           JUNCTION     0.53     2.08     8.48     0  01:53        2.08
  YS02164001           JUNCTION     0.47     2.10     8.56     0  01:53        2.10
  YSB1154              JUNCTION     0.45     1.91    10.97     0  01:47        1.88
  YSB1171              JUNCTION     0.59     1.95    10.85     0  01:47        1.95
  YSB1174              JUNCTION     0.40     1.80    10.91     0  01:47        1.79
  YSB6556              JUNCTION     0.34     1.76    10.93     0  01:47        1.73
  CC-1                 OUTFALL      0.00     0.00     0.00     0  00:00        0.00
  CC-2                 OUTFALL      0.00     0.00     0.00     0  00:00        0.00
  JK-1                 OUTFALL      0.00     0.00     0.00     0  00:00        0.00
  JK-2                 OUTFALL      0.00     0.00     0.00     0  00:00        0.00
  WSC                  OUTFALL      0.29     0.51     1.18     0  01:56        0.51
  CC-storage           STORAGE      0.57     1.12     6.62     0  02:05        1.12
  JK-storage           STORAGE      1.39     4.24     5.04     0  01:58        4.17
  XR-storage           STORAGE      7.86     9.26     7.26     0  08:00        9.26
  
  
  *******************
  Node Inflow Summary
  *******************
  
  -------------------------------------------------------------------------------------------------
                                  Maximum  Maximum                  Lateral       Total        Flow
                                  Lateral    Total  Time of Max      Inflow      Inflow     Balance
                                   Inflow   Inflow   Occurrence      Volume      Volume       Error
  Node                 Type           LPS      LPS  days hr:min    10^6 ltr    10^6 ltr     Percent
  -------------------------------------------------------------------------------------------------
  HS02004478           JUNCTION      0.00  2274.49     0  01:51           0        6.95      -0.009
  HS02004479           JUNCTION      0.00   543.17     0  01:48           0       0.649       0.140
  HS02004480           JUNCTION      0.00  2192.73     0  01:47           0        5.33       0.041
  HS02004770           JUNCTION   1259.24  1259.24     0  01:51        1.97        2.17       0.144
  HS02004777           JUNCTION      0.03   848.22     0  01:46    0.000864        1.58       0.330
  HS02004785           JUNCTION      0.15   865.95     0  01:46     0.00432        1.58       0.027
  HS02004788           JUNCTION    440.21  1038.30     0  01:46       0.729        2.31      -0.053
  HS02004792           JUNCTION   1585.72  2338.61     0  01:51        2.72        5.02       0.005
  HS02004799           JUNCTION    261.22  1738.81     0  01:47       0.345        4.71       0.052
  HS02004802           JUNCTION      0.00   933.96     0  01:51           0        1.64       0.236
  HS02004807           JUNCTION    340.29   933.76     0  01:51       0.441        1.68       0.239
  HS02004817           JUNCTION      0.60   618.31     0  01:53      0.0173         1.3       1.294
  HS02004824           JUNCTION    466.67   775.45     0  01:47       0.916        1.46       0.038
  HS02004830           JUNCTION      0.15   771.83     0  01:47     0.00432       0.727       0.118
  HS02004837           JUNCTION    327.71  1025.04     0  01:47       0.633        1.02      -0.009
  HS02004842           JUNCTION      0.00  1025.97     0  01:47           0       0.675       1.927
  HS02004848           JUNCTION    427.36  1299.00     0  01:47       0.913        1.42      -0.019
  HS02004852           JUNCTION      0.00  1264.08     0  01:48           0        1.27      -0.010
  HS02004856           JUNCTION    133.92  1336.75     0  01:48       0.176        1.45       0.098
  HS02004862           JUNCTION    201.88  1508.81     0  01:48       0.392        1.84       0.002
  HS02004870           JUNCTION    183.90  1665.98     0  01:48       0.241        2.08       0.039
  HS02004876           JUNCTION    202.25  1714.13     0  01:49       0.297        2.38       0.001
  HS02004881           JUNCTION    103.01  1815.07     0  01:49       0.131        2.52      -0.062
  HS02004901           JUNCTION    301.33   497.64     0  01:53       0.421       0.621       0.292
  WS02001211           JUNCTION      7.35   248.16     0  01:50       0.212        5.44       0.610
  WS02001212           JUNCTION      0.00   240.66     0  01:52           0        5.41       0.291
  WS02001213           JUNCTION      0.00   225.85     0  01:52           0         5.4       0.330
  WS02003059           JUNCTION      0.00   226.66     0  01:54           0         5.4       0.592
  WS02003060           JUNCTION     16.53  1530.07     0  01:53       0.476        12.4       0.118
  WS02003066           JUNCTION      0.00  1297.86     0  01:50           0        6.52       0.022
  WS02003067           JUNCTION      0.00  1291.18     0  01:50           0        6.52       0.067
  WS02003069           JUNCTION      0.32  1512.10     0  01:54     0.00922        12.3       0.125
  WS02003072           JUNCTION      0.00  1508.11     0  01:54           0        12.3       0.169
  WS02003073           JUNCTION      1.82  1507.94     0  01:55      0.0524        12.3       0.175
  WS02004138           JUNCTION      0.00   380.00     0  00:00           0        5.25       0.054
  WS02004139           JUNCTION      0.32   191.09     0  00:29     0.00924        5.26       0.508
  WS02004401           JUNCTION      0.00  1290.59     0  01:50           0        6.63       0.159
  WS02004402           JUNCTION      0.00  1291.01     0  01:50           0        6.62       0.159
  WS02004403           JUNCTION      0.00  1291.04     0  01:50           0         6.6       0.157
  WS02004404           JUNCTION      0.16  1292.18     0  01:50     0.00467         6.6       0.128
  WS02004405           JUNCTION      0.04  1291.83     0  01:50      0.0011        6.59       0.192
  WS02004406           JUNCTION      0.00  1291.82     0  01:50           0        6.58       0.323
  WS02004407           JUNCTION      0.00  1291.99     0  01:50           0        6.56       0.022
  WS02004409           JUNCTION      0.00  1291.08     0  01:50           0        6.56       0.043
  WS02004410           JUNCTION      0.00  1291.36     0  01:50           0        6.55       0.070
  WS02004411           JUNCTION      0.00  1291.17     0  01:50           0        6.55       0.092
  WS02004412           JUNCTION      0.00  1290.95     0  01:50           0        6.54       0.120
  WS02004413           JUNCTION      0.00  1291.09     0  01:50           0        6.54       0.210
  WS02006109           JUNCTION      1.23  1274.45     0  01:51      0.0354        6.46       0.165
  WS02006110           JUNCTION      0.00  1119.24     0  02:05           0        6.29       0.111
  WS02006111           JUNCTION      0.00  1119.07     0  02:05           0        6.28       0.019
  WS02006112           JUNCTION    260.31  1290.11     0  01:50       0.375        6.66       0.290
  WS02006113           JUNCTION      0.00  1119.23     0  02:05           0        6.28       0.035
  WS02006115           JUNCTION      0.00  1290.55     0  01:50           0        6.64       0.099
  WS02006116           JUNCTION      0.00  1290.72     0  01:50           0        6.63       0.065
  WS02006228           JUNCTION      0.00  1273.30     0  01:51           0        6.43       0.086
  WS02006229           JUNCTION      0.00  2276.73     0  01:50           0        8.17       0.090
  WS02006230           JUNCTION     10.28  1012.19     0  01:50       0.296        3.02       0.293
  WS02006231           JUNCTION      0.00   453.70     0  01:56           0        2.05      -0.187
  WS02006232           JUNCTION      0.00   453.44     0  01:58           0        2.03       0.206
  WS02006234           JUNCTION      0.00   453.12     0  01:58           0        2.01      -0.340
  WS02006235           JUNCTION      0.00   453.68     0  00:06           0        1.96       0.321
  WS02006238           JUNCTION      0.00   461.65     0  00:06           0        1.87      -0.259
  WS02006239           JUNCTION      0.00   488.54     0  00:06           0        1.84      -0.347
  WS02006240           JUNCTION      0.00   568.63     0  00:06           0        1.82      -0.037
  WS02006242           JUNCTION      0.00   620.39     0  00:05           0        1.81      -0.196
  WS02006243           JUNCTION      0.00   709.03     0  03:06           0        1.53      -0.554
  WS02006245           JUNCTION      0.00   763.03     0  03:06           0        1.54       0.807
  WS02006247           JUNCTION      0.00   791.65     0  03:05           0        1.54      -0.239
  WS02006248           JUNCTION      0.00   854.18     0  03:05           0        1.69      -0.419
  WS02006249           JUNCTION      0.00  1342.00     0  01:49           0        4.28       0.207
  WS02006251           JUNCTION      0.08  1611.72     0  01:49     0.00222        4.41      -0.072
  WS02006252           JUNCTION      0.00  2000.00     0  01:30           0        3.69      -0.850
  WS02006253           JUNCTION     34.06  1609.19     0  01:49      0.0409        2.67      -0.222
  WS02006256           JUNCTION      0.00  1500.00     0  00:30           0        1.47       1.870
  WS02006280           JUNCTION      0.00  2275.13     0  01:50           0        6.93      -0.001
  WS02006284           JUNCTION      0.10  2275.25     0  01:50     0.00275        6.93       0.016
  WS02006287           JUNCTION      0.00  2275.36     0  01:50           0        6.93       0.014
  WSF200               JUNCTION      0.00  1296.49     0  01:50           0        6.52       0.011
  YS02001580           JUNCTION      0.00   199.82     0  01:47           0      0.0045      -3.452
  YS02001583           JUNCTION      0.00   262.50     0  01:47           0      0.0146     -11.984
  YS02001586           JUNCTION    506.52   507.24     0  01:53        1.11        1.12       0.164
  YS02001590           JUNCTION      0.00   318.65     0  02:01           0       0.986      -0.061
  YS02001593           JUNCTION      0.00   319.20     0  02:01           0       0.987       0.026
  YS02001596           JUNCTION      0.00   318.03     0  01:53           0       0.986      -0.011
  YS02001600           JUNCTION      0.00   318.27     0  01:59           0       0.986       0.004
  YS02001601           JUNCTION    926.17  1243.50     0  01:51        1.49        2.48       0.032
  YS02001602           JUNCTION      0.00   577.84     0  01:47           0        1.78       0.020
  YS02001605           JUNCTION      0.00   578.21     0  01:47           0        1.72       0.018
  YS02001607           JUNCTION      0.00   577.69     0  01:47           0        1.72       0.096
  YS02001610           JUNCTION      0.00   536.26     0  01:47           0        1.72       0.120
  YS02001613           JUNCTION      0.00   519.31     0  01:47           0        1.49       0.097
  YS02001616           JUNCTION      0.00   512.11     0  02:11           0        1.49       0.020
  YS02001619           JUNCTION    878.52   987.82     0  01:47        1.71        3.19      -0.016
  YS02001622           JUNCTION      0.00   923.58     0  01:47           0        3.19      -0.007
  YS02001625           JUNCTION      0.00   942.88     0  01:52           0        3.19       0.268
  YS02001629           JUNCTION      0.00   899.01     0  02:08           0        2.84       0.014
  YS02001633           JUNCTION    709.62  1432.21     0  01:48        1.13        3.95       0.088
  YS02001641           JUNCTION      0.00  1428.23     0  01:48           0        3.94       0.073
  YS02001644           JUNCTION    612.93  1945.47     0  01:48       0.922        4.86       0.071
  YS02001647           JUNCTION      0.00  1946.32     0  01:48           0        4.83       0.009
  YS02001649           JUNCTION      0.00  2232.24     0  01:49           0        5.71      -0.000
  YS02001652           JUNCTION      0.00   753.51     0  01:52           0       0.881      -0.179
  YS02001655           JUNCTION      0.15   751.72     0  01:52     0.00443       0.883       0.122
  YS02001658           JUNCTION      0.00   749.16     0  01:52           0       0.878      -0.052
  YS02001661           JUNCTION      0.00   821.96     0  01:51           0       0.878       0.010
  YS02001664           JUNCTION    617.83   617.83     0  01:50       0.878       0.878      -0.006
  YS02001745           JUNCTION    391.90   503.75     0  01:50       0.505       0.506       0.278
  YS02001748           JUNCTION      0.04   637.75     0  01:50      0.0013       0.509      -0.496
  YS02001751           JUNCTION      0.01   497.64     0  01:51    0.000317       0.519       0.129
  YS02001754           JUNCTION      0.26   498.04     0  01:51     0.00749       0.532      -0.293
  YS02001757           JUNCTION      0.00  3466.81     0  01:51           0        8.07       0.056
  YS02001759           JUNCTION    566.37  1373.49     0  01:50       0.738        1.83      -0.011
  YS02001762           JUNCTION      0.00   804.65     0  01:50           0         1.1      -0.008
  YS02001765           JUNCTION      0.00   799.11     0  01:50           0         1.1       0.018
  YS02001767           JUNCTION      0.54   794.38     0  01:50      0.0154         1.1      -0.015
  YS02001770           JUNCTION    766.03   780.99     0  01:50        1.09        1.13      -0.056
  YS02001774           JUNCTION      0.00   483.10     0  01:49           0       0.065       1.930
  YS02001779           JUNCTION      0.01   457.67     0  01:49    0.000144      0.0229      -5.856
  YS02001783           JUNCTION      0.00  1157.46     0  01:50           0        2.89       0.009
  YS02001784           JUNCTION      1.06  1157.80     0  01:49      0.0305        2.92       0.017
  YS02001786           JUNCTION      0.06  1158.18     0  01:49     0.00162        2.92       0.019
  YS02001788           JUNCTION      0.07  1158.93     0  01:49     0.00204        2.92       0.010
  YS02001790           JUNCTION      0.15  1168.37     0  01:51     0.00446        2.93       0.016
  YS02001791           JUNCTION      0.00  1275.96     0  01:55           0        2.93      -0.016
  YS02001793           JUNCTION      0.00  1236.90     0  01:50           0        2.93       0.008
  YS02001882           JUNCTION      0.00    85.42     0  01:48           0      0.0127       4.560
  YS02001884           JUNCTION      0.00   152.90     0  01:47           0      0.0487       5.288
  YS02001887           JUNCTION    615.00   625.94     0  01:49       0.768       0.801       0.559
  YS02001890           JUNCTION      0.00   630.68     0  01:49           0        0.76       0.670
  YS02001895           JUNCTION      0.00   603.08     0  01:48           0       0.742       0.209
  YS02001898           JUNCTION      0.00   606.49     0  01:48           0        0.74       0.015
  YS02001901           JUNCTION      0.00   610.17     0  01:48           0       0.743       0.440
  YS02001904           JUNCTION      0.00   610.61     0  01:48           0       0.748       0.408
  YS02001907           JUNCTION      0.00  1605.18     0  01:50           0         2.3       0.789
  YS02001910           JUNCTION      0.00  1079.17     0  01:50           0        1.56       0.466
  YS02001915           JUNCTION    625.44  1079.14     0  01:50        0.94        1.61       0.097
  YS02001918           JUNCTION      0.00   741.58     0  01:48           0       0.695       0.026
  YS02001920           JUNCTION      2.87   680.15     0  01:49      0.0827       0.671       0.139
  YS02001923           JUNCTION      0.04   932.12     0  01:49     0.00109        0.57      -0.201
  YS02001926           JUNCTION      0.05  1194.52     0  01:49      0.0015       0.548      -0.812
  YS02001929           JUNCTION    314.20  1147.06     0  01:49       0.529       0.536      -0.708
  YS02006553           JUNCTION      0.00   813.35     0  02:01           0        1.88       0.625
  YS02006556           JUNCTION      0.00   812.02     0  02:01           0        1.89       0.446
  YS02006558           JUNCTION    768.80  1176.17     0  01:48        1.06        2.92       0.125
  YS02006561           JUNCTION      0.00  1180.53     0  01:48           0        2.89      -0.004
  YS02163301           JUNCTION      0.00   909.55     0  02:08           0        2.83       0.049
  YS02163601           JUNCTION      0.11  1431.25     0  01:48     0.00317        3.94       0.124
  YS02164001           JUNCTION      0.00  1429.79     0  01:48           0        3.94       0.064
  YSB1154              JUNCTION    329.71   329.71     0  01:51       0.474       0.475       0.303
  YSB1171              JUNCTION      0.00   619.50     0  01:50           0       0.834       0.746
  YSB1174              JUNCTION    289.92   289.92     0  01:50       0.352       0.353       0.341
  YSB6556              JUNCTION      0.00   329.79     0  01:51           0       0.475       0.225
  CC-1                 OUTFALL       0.00  3415.00     0  00:05           0        2.35       0.000
  CC-2                 OUTFALL       0.00  3415.00     0  00:05           0        2.92       0.000
  JK-1                 OUTFALL       0.00  5000.00     0  01:40           0         1.3       0.000
  JK-2                 OUTFALL       0.00  5000.00     0  02:25           0       0.269       0.000
  WSC                  OUTFALL       0.00  1506.89     0  01:56           0        12.3       0.000
  CC-storage           STORAGE       0.00  3467.27     0  01:51           0        10.3      -0.224
  JK-storage           STORAGE       0.00  1340.05     0  01:50           0        3.08      -0.564
  XR-storage           STORAGE     200.00   200.00     0  00:00        5.76        6.36       0.001
  
  
  **********************
  Node Surcharge Summary
  **********************
  
  Surcharging occurs when water rises above the top of the highest conduit.
  ---------------------------------------------------------------------
                                               Max. Height   Min. Depth
                                   Hours       Above Crown    Below Rim
  Node                 Type      Surcharged         Meters       Meters
  ---------------------------------------------------------------------
  HS02004478           JUNCTION        0.36          0.652        0.288
  HS02004479           JUNCTION        0.47          0.885        0.165
  HS02004480           JUNCTION        0.50          0.944        0.156
  HS02004770           JUNCTION        0.43          0.720        0.000
  HS02004777           JUNCTION        0.44          0.780        0.000
  HS02004785           JUNCTION        0.39          0.790        0.000
  HS02004788           JUNCTION        0.38          0.720        0.000
  HS02004792           JUNCTION        0.48          0.900        0.000
  HS02004799           JUNCTION        0.57          1.060        0.000
  HS02004802           JUNCTION        0.51          1.061        0.149
  HS02004807           JUNCTION        0.48          1.178        0.042
  HS02004817           JUNCTION        0.94          1.616        0.124
  HS02004824           JUNCTION        0.38          1.168        0.142
  HS02004830           JUNCTION        0.35          1.330        0.000
  HS02004837           JUNCTION        0.31          1.340        0.000
  HS02004842           JUNCTION        0.43          1.520        0.000
  HS02004848           JUNCTION        0.30          1.249        0.121
  HS02004852           JUNCTION        0.32          1.303        0.117
  HS02004856           JUNCTION        0.30          1.281        0.019
  HS02004862           JUNCTION        0.33          1.300        0.000
  HS02004870           JUNCTION        0.34          1.400        0.000
  HS02004876           JUNCTION        0.42          1.560        0.000
  HS02004881           JUNCTION        0.40          1.450        0.000
  HS02004901           JUNCTION        0.44          0.720        0.000
  WS02004401           JUNCTION        1.21          0.862        0.798
  WS02004402           JUNCTION        1.22          0.846        0.894
  WS02004403           JUNCTION        1.23          0.827        1.203
  WS02004404           JUNCTION        1.35          0.751        2.029
  WS02004405           JUNCTION        1.33          0.709        2.091
  WS02004406           JUNCTION        1.31          0.563        1.887
  WS02004409           JUNCTION        0.70          0.375        1.985
  WS02004410           JUNCTION        0.67          0.288        2.252
  WS02004411           JUNCTION        0.64          0.552        1.978
  WS02004412           JUNCTION        0.57          0.104        2.206
  WS02004413           JUNCTION        0.93          0.149        2.051
  WS02006109           JUNCTION        1.61          1.820        0.000
  WS02006110           JUNCTION        1.47          1.476        0.374
  WS02006111           JUNCTION        0.87          1.010        0.860
  WS02006112           JUNCTION        1.55          1.406        0.274
  WS02006113           JUNCTION        0.92          1.284        0.646
  WS02006115           JUNCTION        1.12          0.919        1.331
  WS02006116           JUNCTION        1.14          0.943        1.347
  WS02006228           JUNCTION        1.61          2.200        0.000
  WS02006229           JUNCTION        0.66          1.065        0.005
  WS02006230           JUNCTION        1.32          1.570        0.000
  WS02006231           JUNCTION        1.32          1.482        0.048
  WS02006232           JUNCTION        1.49          1.480        0.000
  WS02006234           JUNCTION        1.30          1.240        0.000
  WS02006235           JUNCTION        1.32          1.290        0.000
  WS02006238           JUNCTION        1.36          1.359        0.071
  WS02006239           JUNCTION        1.26          1.248        0.042
  WS02006240           JUNCTION        1.23          1.390        0.000
  WS02006242           JUNCTION        1.27          0.820        0.000
  WS02006243           JUNCTION        1.16          0.770        0.000
  WS02006245           JUNCTION        1.12          0.850        0.000
  WS02006247           JUNCTION        1.13          0.760        0.000
  WS02006248           JUNCTION        1.06          0.380        0.000
  WS02006249           JUNCTION        1.08          0.390        0.000
  WS02006251           JUNCTION        0.91          1.180        0.000
  WS02006252           JUNCTION        1.10          1.100        0.000
  WS02006253           JUNCTION        0.93          2.480        0.000
  WS02006256           JUNCTION        5.68          2.050        0.000
  WS02006280           JUNCTION        0.58          0.745        0.035
  WS02006284           JUNCTION        0.52          0.702        0.098
  WS02006287           JUNCTION        0.44          0.727        0.163
  YS02001580           JUNCTION        0.39          0.450        0.000
  YS02001583           JUNCTION        0.39          0.500        0.000
  YS02001586           JUNCTION        0.49          0.510        0.000
  YS02001590           JUNCTION        0.55          0.750        0.000
  YS02001593           JUNCTION        0.55          0.733        0.107
  YS02001596           JUNCTION        0.63          0.995        0.075
  YS02001600           JUNCTION        0.74          1.190        0.000
  YS02001601           JUNCTION        1.07          1.440        0.000
  YS02001602           JUNCTION        0.95          1.270        0.000
  YS02001605           JUNCTION        0.90          1.180        0.000
  YS02001607           JUNCTION        0.48          0.646        0.034
  YS02001610           JUNCTION        0.50          0.680        0.000
  YS02001613           JUNCTION        0.47          0.700        0.000
  YS02001616           JUNCTION        0.43          0.610        0.000
  YS02001619           JUNCTION        0.42          0.610        0.000
  YS02001622           JUNCTION        0.41          0.620        0.000
  YS02001625           JUNCTION        0.58          0.780        0.000
  YS02001629           JUNCTION        0.35          0.470        0.000
  YS02001633           JUNCTION        0.58          1.009        0.051
  YS02001641           JUNCTION        0.49          1.100        0.000
  YS02001644           JUNCTION        0.44          0.920        0.000
  YS02001647           JUNCTION        0.29          0.773        0.127
  YS02001649           JUNCTION        0.32          0.921        0.129
  YS02001652           JUNCTION        0.20          0.852        0.278
  YS02001655           JUNCTION        0.12          0.898        0.302
  YS02001658           JUNCTION        0.04          0.737        0.563
  YS02001748           JUNCTION        0.01          0.725        0.465
  YS02001751           JUNCTION        0.06          0.951        0.249
  YS02001754           JUNCTION        0.12          0.810        0.340
  YS02001757           JUNCTION        0.31          0.948        0.262
  YS02001759           JUNCTION        0.28          0.903        0.307
  YS02001762           JUNCTION        0.26          1.150        0.000
  YS02001765           JUNCTION        0.23          1.100        0.000
  YS02001767           JUNCTION        0.20          1.030        0.000
  YS02001770           JUNCTION        0.18          0.920        0.000
  YS02001774           JUNCTION        0.26          1.050        0.000
  YS02001779           JUNCTION        0.14          0.680        0.000
  YS02001783           JUNCTION        0.35          0.525        1.075
  YS02001784           JUNCTION        0.33          0.390        1.100
  YS02001786           JUNCTION        0.25          0.202        1.228
  YS02001882           JUNCTION        0.31          0.830        0.000
  YS02001884           JUNCTION        0.32          0.870        0.000
  YS02001887           JUNCTION        0.35          0.883        0.067
  YS02001890           JUNCTION        0.36          0.760        0.000
  YS02001895           JUNCTION        0.30          0.636        0.114
  YS02001898           JUNCTION        0.29          0.740        0.000
  YS02001901           JUNCTION        0.33          0.716        0.154
  YS02001904           JUNCTION        0.33          0.667        0.183
  YS02001907           JUNCTION        0.50          0.950        0.000
  YS02001910           JUNCTION        0.38          1.004        0.096
  YS02001915           JUNCTION        0.31          0.960        0.040
  YS02001918           JUNCTION        0.24          0.810        0.000
  YS02001920           JUNCTION        0.25          1.140        0.000
  YS02001923           JUNCTION        0.01          0.820        0.000
  YS02001926           JUNCTION        0.02          0.900        0.000
  YS02001929           JUNCTION        0.01          0.780        0.000
  YS02006553           JUNCTION        0.51          0.990        0.200
  YS02006556           JUNCTION        0.44          0.949        0.401
  YS02006558           JUNCTION        0.43          0.938        0.462
  YS02006561           JUNCTION        0.20          0.233        0.917
  YS02163301           JUNCTION        0.57          0.926        0.104
  YS02163601           JUNCTION        0.60          1.080        0.000
  YS02164001           JUNCTION        0.50          1.100        0.000
  YSB1154              JUNCTION        0.66          1.211        0.189
  YSB1171              JUNCTION        0.66          1.100        0.000
  YSB1174              JUNCTION        0.59          1.101        0.149
  YSB6556              JUNCTION        0.55          1.057        0.043
  
  
  *********************
  Node Flooding Summary
  *********************
  
  Flooding refers to all water that overflows a node, whether it ponds or not.
  --------------------------------------------------------------------------
                                                             Total   Maximum
                                 Maximum   Time of Max       Flood    Ponded
                        Hours       Rate    Occurrence      Volume     Depth
  Node                 Flooded       LPS   days hr:min    10^6 ltr    Meters
  --------------------------------------------------------------------------
  HS02004770              0.25    820.40      0  01:50       0.388     0.000
  HS02004777              0.01     67.17      0  01:46       0.001     0.000
  HS02004785              0.01     72.18      0  01:46       0.000     0.000
  HS02004788              0.01    614.22      0  01:46       0.007     0.000
  HS02004792              0.26   1195.68      0  01:51       0.657     0.000
  HS02004799              0.08    155.70      0  01:49       0.019     0.000
  HS02004830              0.01     67.13      0  01:47       0.000     0.000
  HS02004837              0.01    187.73      0  01:47       0.000     0.000
  HS02004842              0.01      8.03      0  01:49       0.000     0.000
  HS02004862              0.01    135.55      0  01:49       0.001     0.000
  HS02004870              0.01    100.33      0  01:49       0.001     0.000
  HS02004876              0.01     82.01      0  01:49       0.001     0.000
  HS02004881              0.01    641.78      0  01:49       0.002     0.000
  HS02004901              0.32    497.63      0  01:53       0.418     0.000
  WS02006109              0.30    243.93      0  01:51       0.154     0.000
  WS02006228              0.01      1.01      0  01:53       0.000     0.000
  WS02006230              0.53    559.23      0  01:51       0.685     0.000
  WS02006232              0.12      3.55      0  01:44       0.000     0.000
  WS02006234              0.57    128.67      0  01:53       0.177     0.000
  WS02006235              0.01     16.35      0  02:25       0.000     0.000
  WS02006240              0.01     33.23      0  02:25       0.000     0.000
  WS02006242              0.65    266.20      0  03:06       0.276     0.000
  WS02006243              0.01    158.34      0  03:06       0.001     0.000
  WS02006245              0.01    237.54      0  03:06       0.001     0.000
  WS02006247              0.01    190.28      0  03:05       0.001     0.000
  WS02006248              0.88    338.67      0  02:14       0.841     0.000
  WS02006249              0.96   1325.71      0  01:49       3.270     0.000
  WS02006251              0.01    378.26      0  02:40       0.001     0.000
  WS02006252              0.74   1668.14      0  02:05       1.979     0.000
  WS02006253              0.01     52.49      0  02:28       0.000     0.000
  WS02006256              0.42   1489.66      0  03:00       1.252     0.000
  YS02001580              0.01    131.96      0  01:47       0.001     0.000
  YS02001583              0.01    161.54      0  01:47       0.000     0.000
  YS02001586              0.30    188.99      0  01:53       0.122     0.000
  YS02001590              0.01      0.14      0  02:01       0.000     0.000
  YS02001600              0.01      9.24      0  01:46       0.000     0.000
  YS02001601              0.42    845.69      0  01:51       0.700     0.000
  YS02001602              0.30     62.13      0  01:53       0.062     0.000
  YS02001605              0.01      0.12      0  01:59       0.000     0.000
  YS02001610              0.27    373.30      0  01:53       0.233     0.000
  YS02001613              0.01     25.87      0  01:47       0.000     0.000
  YS02001616              0.01     78.54      0  01:47       0.001     0.000
  YS02001619              0.01    174.85      0  01:47       0.001     0.000
  YS02001622              0.01    203.64      0  01:47       0.001     0.000
  YS02001625              0.23    942.57      0  01:52       0.348     0.000
  YS02001629              0.06    277.84      0  01:47       0.014     0.000
  YS02001641              0.01      0.72      0  01:53       0.000     0.000
  YS02001644              0.03    228.49      0  01:51       0.018     0.000
  YS02001762              0.01      0.85      0  01:53       0.000     0.000
  YS02001765              0.01      1.15      0  01:53       0.000     0.000
  YS02001767              0.01      0.96      0  01:53       0.000     0.000
  YS02001770              0.01     45.12      0  01:49       0.000     0.000
  YS02001774              0.01     52.04      0  01:49       0.000     0.000
  YS02001779              0.02    414.18      0  01:49       0.008     0.000
  YS02001882              0.01     66.93      0  01:48       0.000     0.000
  YS02001884              0.01     15.54      0  01:48       0.000     0.000
  YS02001890              0.06    117.78      0  01:48       0.013     0.000
  YS02001898              0.01    253.83      0  01:48       0.001     0.000
  YS02001907              0.19   1217.78      0  01:50       0.406     0.000
  YS02001918              0.01    211.82      0  01:49       0.003     0.000
  YS02001920              0.01     32.60      0  01:49       0.000     0.000
  YS02001923              0.01    192.21      0  01:49       0.001     0.000
  YS02001926              0.01     97.58      0  01:49       0.001     0.000
  YS02001929              0.01   1126.36      0  01:49       0.007     0.000
  YS02163601              0.01      0.87      0  01:53       0.000     0.000
  YS02164001              0.01      1.62      0  01:53       0.000     0.000
  YSB1171                 0.16    566.01      0  01:51       0.186     0.000
  
  
  **********************
  Storage Volume Summary
  **********************
  
  --------------------------------------------------------------------------------------------------
                         Average     Avg  Evap Exfil       Maximum     Max    Time of Max    Maximum
                          Volume    Pcnt  Pcnt  Pcnt        Volume    Pcnt     Occurrence    Outflow
  Storage Unit           1000 m3    Full  Loss  Loss       1000 m3    Full    days hr:min        LPS
  --------------------------------------------------------------------------------------------------
  CC-storage               1.600      25     0     0         3.114      49       0  02:05    8830.00
  JK-storage               0.070      24     0     0         0.213      73       0  01:58   11500.00
  XR-storage               0.944      66     0     0         1.111      77       0  08:00     380.00
  
  
  ***********************
  Outfall Loading Summary
  ***********************
  
  -----------------------------------------------------------
                         Flow       Avg       Max       Total
                         Freq      Flow      Flow      Volume
  Outfall Node           Pcnt       LPS       LPS    10^6 ltr
  -----------------------------------------------------------
  CC-1                   4.42   2861.22   3415.00       2.346
  CC-2                   5.68   2984.39   3415.00       2.919
  JK-1                   3.37   2557.52   5000.00       1.305
  JK-2                   0.57   3526.32   5000.00       0.269
  WSC                   99.94    592.12   1506.89      12.322
  -----------------------------------------------------------
  System                22.79  12521.56   1506.89      19.161
  
  
  ********************
  Link Flow Summary
  ********************
  
  -----------------------------------------------------------------------------
                                 Maximum  Time of Max   Maximum    Max/    Max/
                                  |Flow|   Occurrence   |Veloc|    Full    Full
  Link                 Type          LPS  days hr:min     m/sec    Flow   Depth
  -----------------------------------------------------------------------------
  1                    CONDUIT   1506.89     0  01:56      3.70    0.52    0.51
  HS02004478WS02006287 CONDUIT   2275.36     0  01:50      2.63    0.64    1.00
  HS02004479HS02004480 CONDUIT    541.93     0  01:48      0.77    0.52    1.00
  HS02004480HS02004478 CONDUIT   2196.73     0  01:47      3.14    9.25    1.00
  HS02004770HS02004777 CONDUIT    848.19     0  01:46      1.21    1.55    1.00
  HS02004777HS02004785 CONDUIT    865.80     0  01:46      1.36    1.07    1.00
  HS02004785HS02004788 CONDUIT    795.48     0  01:46      1.35    6.00    1.00
  HS02004788HS02004792 CONDUIT    802.66     0  02:05      1.40    0.53    1.00
  HS02004792HS02004799 CONDUIT   1565.10     0  01:47      2.24    0.96    1.00
  HS02004799HS02004480 CONDUIT   1736.79     0  01:47      2.48    2.19    1.00
  HS02004802HS02004478 CONDUIT    933.87     0  01:51      1.33    0.82    1.00
  HS02004807HS02004802 CONDUIT    933.96     0  01:51      1.33    1.78    1.00
  HS02004817HS02004807 CONDUIT    618.67     0  01:53      0.88    0.37    1.00
  HS02004817HS02004824 CONDUIT    617.71     0  01:53      0.88    0.28    1.00
  HS02004824HS02004830 CONDUIT    771.68     0  01:47      1.11    1.01    1.00
  HS02004830HS02004837 CONDUIT    791.06     0  01:47      1.22    0.79    1.00
  HS02004837HS02004842 CONDUIT   1025.97     0  01:47      1.47    0.61    1.00
  HS02004842HS02004848 CONDUIT   1028.43     0  01:47      1.64    0.60    1.00
  HS02004848HS02004852 CONDUIT   1264.08     0  01:48      1.83    1.42    1.00
  HS02004852HS02004856 CONDUIT   1220.51     0  01:48      1.76    1.40    1.00
  HS02004856HS02004862 CONDUIT   1344.65     0  01:48      1.96    1.34    1.00
  HS02004862HS02004870 CONDUIT   1491.83     0  01:48      2.28    1.61    1.00
  HS02004870HS02004876 CONDUIT   1528.00     0  01:49      2.21    1.01    1.00
  HS02004876HS02004881 CONDUIT   1714.38     0  01:49      2.68   18.23    1.00
  HS02004881HS02006253 CONDUIT   1575.22     0  01:49      2.70    0.31    1.00
  HS02004901HS02004770 CONDUIT    265.55     0  02:01      0.38    1.00    1.00
  WS02001211WS02001212 CONDUIT    240.66     0  01:52      0.54    0.18    0.70
  WS02001212WS02001213 CONDUIT    225.85     0  01:52      1.04    0.35    0.57
  WS02001213WS02003059 CONDUIT    226.66     0  01:54      0.47    0.37    0.90
  WS02003059WS02003060 CONDUIT    242.81     0  01:53      0.66    0.16    0.82
  WS02003060WS02003069 CONDUIT   1511.78     0  01:54      2.09    0.59    0.61
  WS02003066WSF200     CONDUIT   1296.49     0  01:50      3.45    0.22    0.38
  WS02003067WS02003066 CONDUIT   1297.86     0  01:50      2.03    0.42    0.56
  WS02003069WS02003072 CONDUIT   1508.11     0  01:54      1.90    0.73    0.66
  WS02003072WS02003073 CONDUIT   1506.12     0  01:55      2.05    3.25    0.62
  WS02004138WS02004139 CONDUIT    190.77     0  00:29      2.15    0.04    0.42
  WS02004139WS02001211 CONDUIT    240.81     0  01:50      0.54    0.30    0.61
  WS02004401WS02004402 CONDUIT   1291.01     0  01:50      1.64    1.55    1.00
  WS02004402WS02004403 CONDUIT   1291.04     0  01:50      1.64    1.85    1.00
  WS02004403WS02004404 CONDUIT   1292.02     0  01:50      1.65    0.93    1.00
  WS02004404WS02004405 CONDUIT   1291.79     0  01:50      1.64   12.66    1.00
  WS02004405WS02004406 CONDUIT   1291.82     0  01:50      1.64    2.55    1.00
  WS02004406WS02004407 CONDUIT   1291.99     0  01:50      1.96    0.58    0.95
  WS02004407WS02004409 CONDUIT   1291.08     0  01:50      1.99    0.46    0.95
  WS02004409WS02004410 CONDUIT   1291.36     0  01:50      1.64    1.67    1.00
  WS02004410WS02004411 CONDUIT   1291.17     0  01:50      1.64    1.76    1.00
  WS02004411WS02004412 CONDUIT   1290.95     0  01:50      1.64    1.83    1.00
  WS02004412WS02004413 CONDUIT   1291.09     0  01:50      1.64    0.86    1.00
  WS02004413WS02003067 CONDUIT   1291.18     0  01:50      2.00    0.55    0.77
  WS02006109WS02006110 CONDUIT   1119.24     0  02:05      2.23    2.15    1.00
  WS02006110WS02006113 CONDUIT   1119.23     0  02:05      2.23    1.02    1.00
  WS02006111WS02006112 CONDUIT   1118.89     0  02:05      2.23    0.53    1.00
  WS02006112WS02006115 CONDUIT   1290.55     0  01:50      1.64    0.76    1.00
  WS02006113WS02006111 CONDUIT   1119.07     0  02:05      2.69    1.34    1.00
  WS02006115WS02006116 CONDUIT   1290.72     0  01:50      1.64    1.66    1.00
  WS02006116WS02004401 CONDUIT   1290.59     0  01:50      1.64    1.78    1.00
  WS02006228WS02006109 CONDUIT   1273.22     0  01:51      2.53    5.56    1.00
  WS02006229WS02006228 CONDUIT   1273.30     0  01:51      2.53    4.22    1.00
  WS02006230WS02006229 CONDUIT   1001.91     0  01:50      2.60   22.30    1.00
  WS02006231WS02006230 CONDUIT    453.70     0  01:56      1.34    6.88    1.00
  WS02006232WS02006231 CONDUIT    453.44     0  01:58      1.18    0.95    1.00
  WS02006234WS02006232 CONDUIT    453.12     0  01:58      1.41    0.92    1.00
  WS02006235WS02006234 CONDUIT    446.61     0  00:06      1.39    4.71    1.00
  WS02006238WS02006235 CONDUIT    453.68     0  00:06      1.45    1.01    1.00
  WS02006239WS02006238 CONDUIT    461.65     0  00:06      1.26    1.48    1.00
  WS02006240WS02006239 CONDUIT    488.54     0  00:06      1.35    1.54    1.00
  WS02006242WS02006240 CONDUIT    568.63     0  00:06      1.58    2.26    1.00
  WS02006243WS02006242 CONDUIT    620.39     0  00:05      1.62    1.33    1.00
  WS02006245WS02006243 CONDUIT    709.03     0  03:06      1.89    2.10    1.00
  WS02006247WS02006245 CONDUIT    763.03     0  03:06      2.03    6.05    1.00
  WS02006248WS02006247 CONDUIT    791.65     0  03:05      2.09    1.72    1.00
  WS02006249WS02006248 CONDUIT    854.18     0  03:05      2.24    4.68    1.00
  WS02006251WS02006249 CONDUIT   1342.00     0  01:49      3.49    3.87    1.00
  WS02006252WS02006251 CONDUIT   1154.68     0  03:05     40.17    4.24    1.00
  WS02006253WS02006251 CONDUIT   1611.64     0  01:49      4.19    4.83    1.00
  WS02006256WS02006235 CONDUIT    288.93     0  00:00      4.23    3.06    1.00
  WS02006280WS02006229 CONDUIT   2276.73     0  01:50      4.54    0.49    1.00
  WS02006284WS02006280 CONDUIT   2275.13     0  01:50      3.02    0.95    1.00
  WS02006287WS02006284 CONDUIT   2275.15     0  01:50      2.90    1.05    1.00
  WSF200WS02003060     CONDUIT   1306.29     0  01:50      2.58    0.29    0.50
  YS02001580YS02001583 CONDUIT    199.82     0  01:47      0.93    0.77    1.00
  YS02001583YS02001586 CONDUIT    219.18     0  01:47      0.99    0.33    1.00
  YS02001586YS02001590 CONDUIT    318.65     0  02:01      1.30    0.56    1.00
  YS02001590YS02001593 CONDUIT    319.20     0  02:01      1.13    2.00    1.00
  YS02001593YS02001596 CONDUIT    318.03     0  01:53      1.75    0.50    1.00
  YS02001596YS02001600 CONDUIT    318.27     0  01:59      1.21    0.62    1.00
  YS02001600YS02001601 CONDUIT    318.38     0  02:01      1.13    0.55    1.00
  YS02001601YS02001602 CONDUIT    577.84     0  01:47      2.04    2.09    1.00
  YS02001602YS02001605 CONDUIT    578.21     0  01:47      2.04   12.24    1.00
  YS02001605YS02001607 CONDUIT    577.69     0  01:47      2.04    3.17    1.00
  YS02001607YS02001610 CONDUIT    536.26     0  01:47      0.72    0.51    1.00
  YS02001610YS02001613 CONDUIT    519.31     0  01:47      0.67    0.60    1.00
  YS02001613YS02001616 CONDUIT    512.11     0  02:11      0.66    0.44    1.00
  YS02001616YS02001619 CONDUIT    512.87     0  02:11      0.68    0.89    1.00
  YS02001619YS02001622 CONDUIT    923.58     0  01:47      1.29    1.36    1.00
  YS02001622YS02001625 CONDUIT    924.94     0  01:47      1.18    0.49    1.00
  YS02001625YS02001629 CONDUIT    899.01     0  02:08      1.16    0.43    1.00
  YS02001629YS02163301 CONDUIT    909.55     0  02:08      1.16    1.12    1.00
  YS02001633YS02163601 CONDUIT   1431.14     0  01:48      1.82    1.50    1.00
  YS02001641YS02001644 CONDUIT   1428.00     0  01:48      1.82    4.62    1.00
  YS02001644YS02001647 CONDUIT   1946.32     0  01:48      2.48    1.14    1.00
  YS02001647YS02001649 CONDUIT   1954.92     0  01:48      2.49    1.03    1.00
  YS02001649YS02001757 CONDUIT   2234.29     0  01:49      2.84    1.36    1.00
  YS02001652YS02001649 CONDUIT    757.55     0  01:52      0.96    0.38    1.00
  YS02001655YS02001652 CONDUIT    753.51     0  01:52      1.49    0.37    1.00
  YS02001658YS02001655 CONDUIT    751.57     0  01:52      2.06    0.32    1.00
  YS02001661YS02001658 CONDUIT    749.16     0  01:52      2.48    0.29    0.99
  YS02001664YS02001661 CONDUIT    821.96     0  01:51      2.48    0.26    0.73
  YS02001745YS02001748 CONDUIT    629.93     0  01:50      2.37    0.24    0.89
  YS02001748YS02001751 CONDUIT    497.63     0  01:51      1.92    0.25    1.00
  YS02001751YS02001754 CONDUIT    497.78     0  01:51      1.58    0.24    1.00
  YS02001754YS02001757 CONDUIT    499.18     0  01:51      0.64    0.20    1.00
  YS02001757CaochengTiaoxuchi CONDUIT   3467.27     0  01:51      4.94    1.50    1.00
  YS02001759YS02001757 CONDUIT   1376.51     0  01:50      1.75    0.98    1.00
  YS02001762YS02001759 CONDUIT    809.65     0  01:50      1.03    0.93    1.00
  YS02001765YS02001762 CONDUIT    804.65     0  01:50      1.02    0.75    1.00
  YS02001767YS02001765 CONDUIT    799.11     0  01:50      1.02    1.01    1.00
  YS02001770YS02001767 CONDUIT    793.85     0  01:50      1.01    3.14    1.00
  YS02001774YS02001770 CONDUIT    483.10     0  01:49      0.62    0.31    1.00
  YS02001779YS02001774 CONDUIT    457.67     0  01:49      0.60    0.23    1.00
  YS02001783YS02001784 CONDUIT   1156.74     0  01:49      2.30    1.59    1.00
  YS02001784YS02001785 CONDUIT   1158.12     0  01:49      2.30    2.70    1.00
  YS02001786YS02001788 CONDUIT   1158.86     0  01:49      2.47    2.23    0.89
  YS02001788YS02001790 CONDUIT   1168.21     0  01:51      2.71    0.86    0.83
  YS02001790YS02001791 CONDUIT   1275.96     0  01:55      3.42    1.39    0.70
  YS02001791YS02001793 CONDUIT   1236.90     0  01:50      6.75    0.53    0.43
  YS02001793JiankangQianchi CONDUIT   1340.05     0  01:50      2.65    0.11    0.64
  YS02001882YS02001884 CONDUIT     85.42     0  01:48      0.12    0.10    1.00
  YS02001884YS02001887 CONDUIT    152.90     0  01:47      0.20    0.20    1.00
  YS02001887YS02001890 CONDUIT    630.68     0  01:49      0.80    1.08    1.00
  YS02001890YS02001895 CONDUIT    603.08     0  01:48      0.77    0.28    1.00
  YS02001895YS02001898 CONDUIT    606.49     0  01:48      0.77    1.05    1.00
  YS02001898YS02001901 CONDUIT    610.17     0  01:48      0.78    0.39    1.00
  YS02001901YS02001904 CONDUIT    610.61     0  01:48      0.78    0.95    1.00
  YS02001904YS02001907 CONDUIT    610.15     0  01:48      0.78    0.21    1.00
  YS02001907YS02006553 CONDUIT    813.35     0  02:01      0.90    0.96    1.00
  YS02001910YS02001907 CONDUIT   1079.92     0  01:50      1.37    0.61    1.00
  YS02001915YS02001910 CONDUIT   1079.17     0  01:50      1.37    0.54    1.00
  YS02001918YS02001915 CONDUIT    741.58     0  01:48      0.96    0.41    1.00
  YS02001920YS02001918 CONDUIT    677.28     0  01:49      0.86    0.66    1.00
  YS02001923YS02001920 CONDUIT    696.61     0  01:49      0.93    0.31    1.00
  YS02001926YS02001923 CONDUIT    929.71     0  01:49      1.37    1.33    1.00
  YS02001929YS02001926 CONDUIT    862.12     0  01:49      1.25    0.41    1.00
  YS02006553YS02006556 CONDUIT    812.02     0  02:01      1.03    0.69    1.00
  YS02006556YS02006558 CONDUIT    809.56     0  02:01      1.03    0.64    1.00
  YS02006558YS02006561 CONDUIT   1180.53     0  01:48      4.18    2.61    1.00
  YS02006561YS02001783 CONDUIT   1157.46     0  01:50      2.30    0.60    1.00
  YS02163301YS02001633 CONDUIT    908.80     0  02:08      1.16    0.85    1.00
  YS02163601YS02164001 CONDUIT   1429.79     0  01:48      1.82    1.27    1.00
  YS02164001YS02001641 CONDUIT   1428.23     0  01:48      1.82    1.95    1.00
  YSB1154YSB6556       CONDUIT    329.79     0  01:51      0.86    0.59    1.00
  YSB1171HS02004479    CONDUIT    543.17     0  01:48      1.08    0.36    1.00
  YSB1174YSB1171       CONDUIT    290.14     0  01:50      0.75    0.44    1.00
  YSB6556YSB1171       CONDUIT    330.15     0  01:51      0.86    0.34    1.00
  CC-R1                PUMP      3415.00     0  00:05              5.00
  CC-R2                PUMP      3415.00     0  00:05              5.00
  CC-S1                PUMP      1000.00     0  01:30              5.00
  CC-S2                PUMP      1000.00     0  00:05              5.00
  JK-R1                PUMP      5000.00     0  01:40              5.00
  JK-R2                PUMP      5000.00     0  02:25              5.00
  JK-S                 PUMP      1500.00     0  00:30              5.00
  XR-1                 PUMP        95.00     0  00:00              1.00
  XR-2                 PUMP        95.00     0  00:00              1.00
  XR-3                 PUMP        95.00     0  00:00              1.00
  XR-4                 PUMP        95.00     0  00:00              1.00
  
  
  ***************************
  Flow Classification Summary
  ***************************
  
  -------------------------------------------------------------------------------------
                      Adjusted    ---------- Fraction of Time in Flow Class ---------- 
                       /Actual         Up    Down  Sub   Sup   Up    Down  Norm  Inlet 
  Conduit               Length    Dry  Dry   Dry   Crit  Crit  Crit  Crit  Ltd   Ctrl  
  -------------------------------------------------------------------------------------
  1                       1.00   0.00  0.00  0.00  0.00  1.00  0.00  0.00  0.35  0.00
  HS02004478WS02006287    1.00   0.11  0.00  0.00  0.58  0.31  0.00  0.00  0.62  0.00
  HS02004479HS02004480    1.00   0.04  0.00  0.00  0.96  0.00  0.00  0.00  0.12  0.00
  HS02004480HS02004478    1.00   0.09  0.00  0.00  0.51  0.00  0.00  0.39  0.00  0.00
  HS02004770HS02004777    1.00   0.00  0.09  0.00  0.91  0.00  0.00  0.00  0.03  0.00
  HS02004777HS02004785    1.00   0.00  0.00  0.00  1.00  0.00  0.00  0.00  0.13  0.00
  HS02004785HS02004788    1.00   0.00  0.00  0.00  1.00  0.00  0.00  0.00  0.00  0.00
  HS02004788HS02004792    1.00   0.00  0.00  0.00  0.99  0.01  0.00  0.00  0.92  0.00
  HS02004792HS02004799    1.00   0.00  0.00  0.00  0.99  0.01  0.00  0.00  0.89  0.00
  HS02004799HS02004480    1.00   0.00  0.04  0.00  0.89  0.00  0.07  0.00  0.00  0.00
  HS02004802HS02004478    1.00   0.09  0.00  0.00  0.90  0.00  0.00  0.00  0.03  0.00
  HS02004807HS02004802    1.00   0.09  0.00  0.00  0.90  0.00  0.00  0.01  0.00  0.00
  HS02004817HS02004807    1.00   0.00  0.09  0.00  0.91  0.00  0.00  0.00  0.01  0.00
  HS02004817HS02004824    1.00   0.00  0.00  0.00  1.00  0.00  0.00  0.00  0.85  0.00
  HS02004824HS02004830    1.00   0.00  0.00  0.00  1.00  0.00  0.00  0.00  0.01  0.00
  HS02004830HS02004837    1.00   0.00  0.00  0.00  1.00  0.00  0.00  0.00  0.91  0.00
  HS02004837HS02004842    1.00   0.00  0.00  0.00  0.99  0.01  0.00  0.00  0.11  0.00
  HS02004842HS02004848    1.00   0.00  0.09  0.00  0.91  0.00  0.00  0.00  0.60  0.00
  HS02004848HS02004852    1.00   0.09  0.00  0.00  0.91  0.00  0.00  0.00  0.71  0.00
  HS02004852HS02004856    1.00   0.09  0.01  0.00  0.90  0.00  0.00  0.00  0.71  0.00
  HS02004856HS02004862    1.00   0.00  0.12  0.00  0.88  0.00  0.00  0.00  0.75  0.00
  HS02004862HS02004870    1.00   0.00  0.00  0.00  1.00  0.00  0.00  0.00  0.04  0.00
  HS02004870HS02004876    1.00   0.01  0.00  0.00  0.99  0.00  0.00  0.00  0.92  0.00
  HS02004876HS02004881    1.00   0.01  0.00  0.00  0.80  0.19  0.00  0.00  0.00  0.00
  HS02004881HS02006253    1.00   0.00  0.01  0.00  0.32  0.05  0.00  0.62  0.09  0.00
  HS02004901HS02004770    1.00   0.09  0.00  0.00  0.91  0.00  0.00  0.00  0.00  0.00
  WS02001211WS02001212    1.00   0.00  0.03  0.00  0.97  0.00  0.00  0.00  0.00  0.00
  WS02001212WS02001213    1.00   0.03  0.00  0.00  0.42  0.00  0.55  0.00  0.00  0.00
  WS02001213WS02003059    1.00   0.00  0.00  0.00  0.99  0.00  0.00  0.00  0.00  0.00
  WS02003059WS02003060    1.00   0.00  0.00  0.00  1.00  0.00  0.00  0.00  0.03  0.00
  WS02003060WS02003069    1.00   0.00  0.00  0.00  0.99  0.01  0.00  0.00  0.60  0.00
  WS02003066WSF200        1.00   0.07  0.00  0.00  0.00  0.93  0.00  0.00  0.72  0.00
  WS02003067WS02003066    1.00   0.06  0.00  0.00  0.94  0.00  0.00  0.00  0.00  0.00
  WS02003069WS02003072    1.00   0.00  0.00  0.00  1.00  0.00  0.00  0.00  0.73  0.00
  WS02003072WS02003073    1.00   0.00  0.00  0.00  0.00  0.00  0.00  1.00  0.00  0.00
  WS02004138WS02004139    1.00   0.00  0.01  0.00  0.97  0.01  0.00  0.02  0.98  0.00
  WS02004139WS02001211    1.00   0.00  0.00  0.00  0.99  0.00  0.00  0.00  0.00  0.00
  WS02004401WS02004402    1.00   0.03  0.00  0.00  0.97  0.00  0.00  0.00  0.00  0.00
  WS02004402WS02004403    1.00   0.03  0.00  0.00  0.97  0.00  0.00  0.00  0.00  0.00
  WS02004403WS02004404    1.00   0.00  0.03  0.00  0.97  0.00  0.00  0.00  0.00  0.00
  WS02004404WS02004405    1.00   0.00  0.00  0.00  1.00  0.00  0.00  0.00  0.00  0.00
  WS02004405WS02004406    1.00   0.00  0.00  0.00  1.00  0.00  0.00  0.00  0.00  0.00
  WS02004406WS02004407    1.00   0.00  0.04  0.00  0.96  0.00  0.00  0.00  0.00  0.00
  WS02004407WS02004409    1.00   0.04  0.00  0.00  0.95  0.00  0.00  0.00  0.86  0.00
  WS02004409WS02004410    1.00   0.05  0.00  0.00  0.95  0.00  0.00  0.00  0.00  0.00
  WS02004410WS02004411    1.00   0.05  0.00  0.00  0.95  0.00  0.00  0.00  0.00  0.00
  WS02004411WS02004412    1.00   0.05  0.00  0.00  0.95  0.00  0.00  0.00  0.00  0.00
  WS02004412WS02004413    1.00   0.05  0.00  0.00  0.95  0.00  0.00  0.00  0.01  0.00
  WS02004413WS02003067    1.00   0.05  0.01  0.00  0.00  0.00  0.94  0.00  0.00  0.00
  WS02006109WS02006110    1.00   0.00  0.01  0.00  0.98  0.00  0.01  0.00  0.00  0.00
  WS02006110WS02006113    1.00   0.01  0.01  0.00  0.98  0.00  0.00  0.00  0.00  0.00
  WS02006111WS02006112    1.00   0.02  0.00  0.00  0.97  0.00  0.00  0.00  0.81  0.00
  WS02006112WS02006115    1.00   0.02  0.00  0.00  0.97  0.00  0.00  0.00  0.00  0.00
[...]
  WS02006284WS02006280    1.00   0.10  0.00  0.00  0.14  0.01  0.00  0.75  0.00  0.00
  WS02006287WS02006284    1.00   0.08  0.03  0.00  0.48  0.41  0.00  0.00  0.66  0.00
  WSF200WS02003060        1.00   0.00  0.07  0.00  0.55  0.38  0.00  0.00  0.70  0.00
  YS02001580YS02001583    1.00   0.19  0.49  0.00  0.31  0.00  0.00  0.00  0.71  0.00
  YS02001583YS02001586    1.00   0.34  0.26  0.00  0.39  0.00  0.00  0.00  0.71  0.00
  YS02001586YS02001590    1.00   0.09  0.00  0.00  0.57  0.03  0.00  0.31  0.32  0.00
  YS02001590YS02001593    1.00   0.09  0.00  0.00  0.14  0.00  0.76  0.00  0.00  0.00
  YS02001593YS02001596    1.00   0.10  0.00  0.00  0.17  0.01  0.00  0.72  0.01  0.00
  YS02001596YS02001600    1.00   0.10  0.00  0.00  0.30  0.04  0.00  0.57  0.05  0.00
  YS02001600YS02001601    1.00   0.09  0.00  0.00  0.90  0.00  0.00  0.00  0.64  0.00
  YS02001601YS02001602    1.00   0.09  0.01  0.00  0.90  0.00  0.00  0.00  0.00  0.00
  YS02001602YS02001605    1.00   0.10  0.00  0.00  0.90  0.00  0.00  0.00  0.00  0.00
  YS02001605YS02001607    1.00   0.10  0.00  0.00  0.90  0.00  0.00  0.00  0.00  0.00
  YS02001607YS02001610    1.00   0.09  0.00  0.00  0.90  0.00  0.00  0.00  0.02  0.00
  YS02001610YS02001613    1.00   0.09  0.00  0.00  0.91  0.00  0.00  0.00  0.01  0.00
  YS02001613YS02001616    1.00   0.09  0.00  0.00  0.91  0.00  0.00  0.00  0.01  0.00
  YS02001616YS02001619    1.00   0.09  0.00  0.00  0.91  0.00  0.00  0.00  0.00  0.00
  YS02001619YS02001622    1.00   0.09  0.00  0.00  0.91  0.00  0.00  0.00  0.36  0.00
  YS02001622YS02001625    1.00   0.09  0.00  0.00  0.91  0.00  0.00  0.00  0.05  0.00
  YS02001625YS02001629    1.00   0.09  0.03  0.00  0.21  0.00  0.67  0.00  0.00  0.00
  YS02001629YS02163301    1.00   0.11  0.00  0.00  0.89  0.00  0.00  0.00  0.00  0.00
  YS02001633YS02163601    1.00   0.00  0.01  0.00  0.99  0.00  0.00  0.00  0.15  0.00
  YS02001641YS02001644    1.00   0.00  0.01  0.00  0.99  0.00  0.00  0.00  0.00  0.00
  YS02001644YS02001647    1.00   0.00  0.12  0.00  0.88  0.00  0.00  0.00  0.00  0.00
  YS02001647YS02001649    1.00   0.00  0.12  0.00  0.48  0.40  0.00  0.00  0.60  0.00
  YS02001649YS02001757    1.00   0.00  0.00  0.00  0.55  0.45  0.00  0.00  0.64  0.00
  YS02001652YS02001649    1.00   0.00  0.00  0.00  0.97  0.03  0.00  0.00  0.78  0.00
  YS02001655YS02001652    1.00   0.00  0.00  0.00  0.24  0.04  0.00  0.72  0.08  0.00
  YS02001658YS02001655    1.00   0.00  0.10  0.00  0.48  0.42  0.00  0.00  0.75  0.00
  YS02001661YS02001658    1.00   0.10  0.00  0.00  0.36  0.54  0.00  0.00  0.76  0.00
  YS02001664YS02001661    1.00   0.09  0.00  0.00  0.71  0.20  0.00  0.00  0.86  0.00
  YS02001745YS02001748    1.00   0.00  0.00  0.00  0.05  0.01  0.00  0.94  0.03  0.00
  YS02001748YS02001751    1.00   0.00  0.00  0.00  0.61  0.39  0.00  0.00  0.83  0.00
  YS02001751YS02001754    1.00   0.00  0.00  0.00  0.14  0.02  0.00  0.84  0.03  0.00
  YS02001754YS02001757    1.00   0.00  0.00  0.00  1.00  0.00  0.00  0.00  0.90  0.00
  YS02001757CaochengTiaoxuchi    1.00   0.00  0.00  0.00  0.87  0.13  0.00  0.00  0.92  0.00
  YS02001759YS02001757    1.00   0.00  0.00  0.00  1.00  0.00  0.00  0.00  0.64  0.00
  YS02001762YS02001759    1.00   0.00  0.00  0.00  1.00  0.00  0.00  0.00  0.04  0.00
  YS02001765YS02001762    1.00   0.00  0.00  0.00  1.00  0.00  0.00  0.00  0.77  0.00
  YS02001767YS02001765    1.00   0.00  0.00  0.00  1.00  0.00  0.00  0.00  0.00  0.00
  YS02001770YS02001767    1.00   0.00  0.00  0.00  1.00  0.00  0.00  0.00  0.00  0.00
  YS02001774YS02001770    1.00   0.00  0.09  0.00  0.72  0.00  0.18  0.00  0.04  0.00
  YS02001779YS02001774    1.00   0.00  0.00  0.00  1.00  0.00  0.00  0.00  0.83  0.00
  YS02001783YS02001784    1.00   0.00  0.13  0.00  0.87  0.00  0.00  0.00  0.58  0.00
  YS02001784YS02001785    1.00   0.00  0.00  0.00  1.00  0.00  0.00  0.00  0.18  0.00
  YS02001786YS02001788    1.00   0.00  0.00  0.00  0.63  0.37  0.00  0.00  0.00  0.00
  YS02001788YS02001790    1.00   0.00  0.00  0.00  0.17  0.83  0.00  0.00  0.86  0.00
  YS02001790YS02001791    1.00   0.00  0.00  0.00  0.02  0.98  0.00  0.00  0.15  0.00
  YS02001791YS02001793    1.00   0.00  0.00  0.00  0.00  1.00  0.00  0.00  0.01  0.00
  YS02001793JiankangQianchi    1.00   0.00  0.00  0.00  0.97  0.03  0.00  0.00  0.98  0.00
  YS02001882YS02001884    1.00   0.11  0.01  0.00  0.89  0.00  0.00  0.00  0.00  0.00
  YS02001884YS02001887    1.00   0.06  0.03  0.00  0.91  0.00  0.00  0.00  0.00  0.00
  YS02001887YS02001890    1.00   0.00  0.00  0.00  0.96  0.00  0.03  0.00  0.00  0.00
  YS02001890YS02001895    1.00   0.00  0.11  0.00  0.89  0.00  0.00  0.00  0.00  0.00
  YS02001895YS02001898    1.00   0.11  0.00  0.00  0.86  0.00  0.02  0.00  0.00  0.00
  YS02001898YS02001901    1.00   0.11  0.00  0.00  0.88  0.00  0.00  0.00  0.01  0.00
  YS02001901YS02001904    1.00   0.11  0.00  0.00  0.89  0.00  0.00  0.00  0.00  0.00
  YS02001904YS02001907    1.00   0.00  0.11  0.00  0.89  0.00  0.00  0.00  0.00  0.00
  YS02001907YS02006553    1.00   0.00  0.03  0.00  0.97  0.00  0.00  0.00  0.00  0.00
  YS02001910YS02001907    1.00   0.00  0.00  0.00  0.96  0.00  0.00  0.03  0.12  0.00
  YS02001915YS02001910    1.00   0.00  0.00  0.00  0.97  0.03  0.00  0.00  0.17  0.00
  YS02001918YS02001915    1.00   0.00  0.00  0.00  0.97  0.02  0.00  0.00  0.79  0.00
  YS02001920YS02001918    1.00   0.00  0.01  0.00  0.99  0.00  0.00  0.00  0.00  0.00
  YS02001923YS02001920    1.00   0.00  0.00  0.00  1.00  0.00  0.00  0.00  0.95  0.00
  YS02001926YS02001923    1.00   0.00  0.06  0.00  0.06  0.00  0.87  0.00  0.00  0.00
  YS02001929YS02001926    1.00   0.00  0.09  0.00  0.91  0.00  0.00  0.00  0.84  0.00
  YS02006553YS02006556    1.00   0.01  0.00  0.00  0.99  0.00  0.00  0.00  0.03  0.00
  YS02006556YS02006558    1.00   0.00  0.00  0.00  1.00  0.00  0.00  0.00  0.00  0.00
  YS02006558YS02006561    1.00   0.13  0.00  0.00  0.06  0.82  0.00  0.00  0.18  0.00
  YS02006561YS02001783    1.00   0.13  0.00  0.00  0.10  0.77  0.00  0.00  0.72  0.00
  YS02163301YS02001633    1.00   0.00  0.11  0.00  0.89  0.00  0.00  0.00  0.00  0.00
  YS02163601YS02164001    1.00   0.00  0.07  0.00  0.93  0.00  0.00  0.00  0.00  0.00
  YS02164001YS02001641    1.00   0.01  0.06  0.00  0.93  0.00  0.00  0.00  0.06  0.00
  YSB1154YSB6556          1.00   0.09  0.00  0.00  0.91  0.00  0.00  0.00  0.02  0.00
  YSB1171HS02004479       1.00   0.04  0.00  0.00  0.95  0.00  0.00  0.01  0.10  0.00
  YSB1174YSB1171          1.00   0.05  0.02  0.00  0.92  0.00  0.00  0.00  0.00  0.00
  YSB6556YSB1171          1.00   0.05  0.05  0.00  0.91  0.00  0.00  0.00  0.00  0.00
  
  
  *************************
  Conduit Surcharge Summary
  *************************
  
  ----------------------------------------------------------------------------
                                                           Hours        Hours 
                         --------- Hours Full --------   Above Full   Capacity
  Conduit                Both Ends  Upstream  Dnstream   Normal Flow   Limited
  ----------------------------------------------------------------------------
  HS02004478WS02006287        0.36      0.36      0.50      0.01         0.01
  HS02004479HS02004480        0.51      0.51      0.53      0.01         0.01
  HS02004480HS02004478        0.45      0.50      0.45      1.49         0.45
  HS02004770HS02004777        0.43      0.43      0.44      0.09         0.06
  HS02004777HS02004785        0.39      0.39      0.44      0.01         0.01
  HS02004785HS02004788        0.38      0.39      0.38      1.13         0.36
  HS02004788HS02004792        0.38      0.38      0.48      0.01         0.01
  HS02004792HS02004799        0.48      0.48      0.57      0.01         0.01
  HS02004799HS02004480        0.50      0.50      0.57      0.65         0.01
  HS02004802HS02004478        0.46      0.46      0.51      0.01         0.01
  HS02004807HS02004802        0.48      0.48      0.51      0.14         0.14
  HS02004817HS02004807        0.48      0.48      0.94      0.01         0.01
  HS02004817HS02004824        0.38      0.38      0.94      0.01         0.01
  HS02004824HS02004830        0.35      0.35      0.38      0.01         0.01
  HS02004830HS02004837        0.31      0.31      0.35      0.01         0.01
  HS02004837HS02004842        0.31      0.31      0.43      0.01         0.01
  HS02004842HS02004848        0.30      0.30      0.43      0.01         0.01
  HS02004848HS02004852        0.29      0.30      0.32      0.03         0.01
  HS02004852HS02004856        0.32      0.32      0.33      0.02         0.01
  HS02004856HS02004862        0.30      0.30      0.33      0.02         0.01
  HS02004862HS02004870        0.33      0.33      0.34      0.04         0.04
  HS02004870HS02004876        0.34      0.34      0.42      0.01         0.01
  HS02004876HS02004881        0.40      0.42      0.40      1.15         0.40
  HS02004881HS02006253        0.40      0.40      0.93      0.01         0.01
  HS02004901HS02004770        0.43      0.43      0.44      0.01         0.01
  WS02003072WS02003073        0.01      0.01      0.01      1.85         0.01
  WS02004401WS02004402        1.21      1.21      1.22      1.00         0.97
  WS02004402WS02004403        1.22      1.22      1.23      1.21         1.20
  WS02004403WS02004404        1.23      1.23      1.35      0.01         0.01
  WS02004404WS02004405        1.33      1.35      1.33      2.35         1.33
  WS02004405WS02004406        1.31      1.33      1.31      1.53         1.31
  WS02004406WS02004407        0.01      0.01      1.31      0.01         0.01
  WS02004407WS02004409        0.01      0.01      0.70      0.01         0.01
  WS02004409WS02004410        0.67      0.70      0.67      1.12         0.66
  WS02004410WS02004411        0.64      0.67      0.64      1.19         0.63
  WS02004411WS02004412        0.57      0.64      0.57      1.21         0.57
  WS02004412WS02004413        0.57      0.57      0.93      0.01         0.01
  WS02004413WS02003067        0.01      0.01      0.93      0.01         0.01
  WS02006109WS02006110        1.47      1.47      1.63      1.47         0.01
  WS02006110WS02006113        0.92      0.92      1.62      0.23         0.01
  WS02006111WS02006112        0.87      0.87      1.76      0.01         0.01
  WS02006112WS02006115        1.12      1.12      1.55      0.01         0.01
  WS02006113WS02006111        0.90      0.92      0.90      0.99         0.90
  WS02006115WS02006116        1.14      1.14      1.14      1.10         1.07
  WS02006116WS02004401        1.21      1.21      1.21      1.20         1.17
  WS02006228WS02006109        1.61      1.63      1.61      1.91         1.61
  WS02006229WS02006228        1.61      1.61      1.61      1.73         1.61
  WS02006230WS02006229        1.65      1.65      1.65      2.40         0.82
  WS02006231WS02006230        1.32      1.32      1.34      1.98         0.79
  WS02006232WS02006231        1.32      1.32      1.49      0.01         0.09
  WS02006234WS02006232        1.34      1.34      1.49      0.01         0.01
  WS02006235WS02006234        1.29      1.30      1.32      1.75         0.75
  WS02006238WS02006235        1.35      1.35      1.39      0.01         0.21
  WS02006239WS02006238        1.31      1.31      1.36      0.66         0.04
  WS02006240WS02006239        1.25      1.26      1.26      0.66         0.04
  WS02006242WS02006240        1.23      1.23      1.32      0.77         0.65
  WS02006243WS02006242        1.18      1.18      1.27      0.01         0.01
  WS02006245WS02006243        1.12      1.14      1.16      0.09         0.03
  WS02006247WS02006245        1.11      1.15      1.12      1.44         0.23
  WS02006248WS02006247        1.08      1.08      1.13      0.03         0.02
  WS02006249WS02006248        1.05      1.06      1.08      0.38         0.02
  WS02006251WS02006249        1.06      1.11      1.08      1.05         0.89
  WS02006252WS02006251        1.06      4.14      1.08      0.75         0.01
  WS02006253WS02006251        1.06      1.10      1.12      0.69         0.08
  WS02006256WS02006235        1.98      2.00      5.60      0.15         0.01
  WS02006280WS02006229        0.59      0.59      0.66      0.01         0.01
  WS02006284WS02006280        0.52      0.52      0.58      0.01         0.01
  WS02006287WS02006284        0.44      0.44      0.53      0.17         0.18
  YS02001580YS02001583        0.39      0.39      0.42      0.01         0.01
  YS02001583YS02001586        0.39      0.39      0.48      0.01         0.01
  YS02001586YS02001590        0.49      0.49      0.55      0.01         0.01
  YS02001590YS02001593        0.55      0.55      0.56      0.60         0.01
  YS02001593YS02001596        0.55      0.55      0.63      0.01         0.01
  YS02001596YS02001600        0.66      0.66      0.74      0.01         0.01
  YS02001600YS02001601        0.79      0.79      1.07      0.01         0.01
  YS02001601YS02001602        0.95      0.95      1.12      0.76         0.01
  YS02001602YS02001605        0.90      0.90      0.95      1.88         0.01
  YS02001605YS02001607        0.86      0.90      0.86      1.02         0.86
  YS02001607YS02001610        0.48      0.48      0.50      0.01         0.01
  YS02001610YS02001613        0.47      0.47      0.50      0.01         0.01
  YS02001613YS02001616        0.43      0.43      0.47      0.01         0.01
  YS02001616YS02001619        0.42      0.42      0.43      0.01         0.01
  YS02001619YS02001622        0.41      0.42      0.41      0.58         0.39
  YS02001622YS02001625        0.41      0.41      0.58      0.01         0.01
  YS02001625YS02001629        0.35      0.35      0.58      0.01         0.01
  YS02001629YS02163301        0.56      0.56      0.57      0.26         0.25
  YS02001633YS02163601        0.58      0.58      0.60      0.39         0.40
  YS02001641YS02001644        0.44      0.49      0.44      1.17         0.43
  YS02001644YS02001647        0.29      0.29      0.44      0.04         0.01
  YS02001647YS02001649        0.29      0.29      0.32      0.01         0.01
  YS02001649YS02001757        0.31      0.32      0.31      0.36         0.29
  YS02001652YS02001649        0.23      0.23      0.32      0.01         0.01
  YS02001655YS02001652        0.12      0.12      0.20      0.01         0.01
  YS02001658YS02001655        0.04      0.04      0.12      0.01         0.01
  YS02001661YS02001658        0.01      0.01      0.04      0.01         0.01
  YS02001664YS02001661        0.01      0.01      0.01      0.01         0.01
  YS02001745YS02001748        0.01      0.01      0.01      0.01         0.01
  YS02001748YS02001751        0.02      0.02      0.06      0.01         0.01
  YS02001751YS02001754        0.06      0.06      0.12      0.01         0.01
  YS02001754YS02001757        0.14      0.14      0.31      0.01         0.01
  YS02001757CaochengTiaoxuchi        0.10      0.31      0.14      0.37         0.10
  YS02001759YS02001757        0.28      0.28      0.31      0.01         0.02
  YS02001762YS02001759        0.26      0.26      0.28      0.01         0.02
  YS02001765YS02001762        0.23      0.23      0.26      0.01         0.01
  YS02001767YS02001765        0.20      0.20      0.23      0.01         0.02
  YS02001770YS02001767        0.20      0.21      0.20      0.44         0.19
  YS02001774YS02001770        0.18      0.18      0.26      0.01         0.01
  YS02001779YS02001774        0.14      0.14      0.26      0.01         0.01
  YS02001783YS02001784        0.33      0.35      0.33      0.45         0.33
  YS02001784YS02001785        0.25      0.33      0.25      0.62         0.25
  YS02001786YS02001788        0.01      0.25      0.01      0.52         0.01
  YS02001790YS02001791        0.01      0.01      0.01      0.33         0.01
  YS02001793JiankangQianchi        0.01      0.01      3.92      0.01         0.01
  YS02001882YS02001884        0.31      0.31      0.32      0.01         0.01
  YS02001884YS02001887        0.34      0.34      0.35      0.01         0.01
  YS02001887YS02001890        0.36      0.36      0.36      0.04         0.01
  YS02001890YS02001895        0.30      0.30      0.38      0.01         0.01
  YS02001895YS02001898        0.29      0.29      0.30      0.01         0.01
  YS02001898YS02001901        0.30      0.30      0.34      0.01         0.01
  YS02001901YS02001904        0.33      0.33      0.34      0.01         0.01
  YS02001904YS02001907        0.33      0.33      0.51      0.01         0.01
  YS02001907YS02006553        0.62      0.62      0.67      0.01         0.01
  YS02001910YS02001907        0.38      0.38      0.50      0.01         0.01
  YS02001915YS02001910        0.31      0.31      0.38      0.01         0.01
  YS02001918YS02001915        0.24      0.24      0.31      0.01         0.01
  YS02001920YS02001918        0.24      0.24      0.25      0.01         0.01
  YS02001923YS02001920        0.20      0.20      0.25      0.01         0.01
  YS02001926YS02001923        0.01      0.01      0.01      0.01         0.01
  YS02001929YS02001926        0.01      0.01      0.01      0.01         0.01
  YS02006553YS02006556        0.44      0.44      0.51      0.01         0.01
  YS02006556YS02006558        0.47      0.47      0.52      0.01         0.01
  YS02006558YS02006561        0.27      0.43      0.27      0.58         0.27
  YS02006561YS02001783        0.20      0.20      0.35      0.01         0.01
  YS02163301YS02001633        0.57      0.57      0.60      0.01         0.01
  YS02163601YS02164001        0.50      0.50      0.60      0.22         0.01
  YS02164001YS02001641        0.49      0.50      0.49      0.61         0.44
  YSB1154YSB6556              0.55      0.55      0.66      0.01         0.01
  YSB1171HS02004479           0.47      0.47      0.66      0.01         0.01
  YSB1174YSB1171              0.60      0.60      0.87      0.01         0.01
  YSB6556YSB1171              0.55      0.55      1.02      0.01         0.01
  
  
  ***************
  Pumping Summary
  ***************
  
  ---------------------------------------------------------------------------------------------------------
                                                  Min       Avg       Max     Total     Power    % Time Off
                        Percent   Number of      Flow      Flow      Flow    Volume     Usage    Pump Curve
  Pump                 Utilized   Start-Ups       LPS       LPS       LPS  10^6 ltr     Kw-hr    Low   High
  ---------------------------------------------------------------------------------------------------------
  CC-R1                    3.22          21      0.00   2861.22   3415.00     2.344     38.97    0.0  100.0
  CC-R2                    3.80          17      0.00   2984.39   3415.00     2.914     49.86    0.0   88.6
  CC-S1                   10.22          14      0.00    457.87   1000.00     1.359     12.46    0.0    0.0
  CC-S2                    9.14          17      0.00    922.17   1000.00     2.296     21.00    0.0    0.0
  JK-R1                    1.81          11      0.00   2557.52   5000.00     1.304     12.49    0.0    0.0
  JK-R2                    0.32           5      0.00   3526.32   5000.00     0.266      1.87    0.0    0.0
  JK-S                     5.26          29      0.00    968.87   1500.00     1.468     25.30    0.0    0.0
  XR-1                    97.91           2      0.00     95.00     95.00     2.679      9.61    0.0    0.0
  XR-2                    93.94           2      0.00     95.00     95.00     2.570      8.77    0.0    0.0
  XR-3                     0.00           1      0.00     95.00     95.00     0.000      0.00    0.0    0.0
  XR-4                     0.00           1      0.00     95.00     95.00     0.000      0.00    0.0    0.0
  

  Analysis begun on:  Thu Jul 13 10:45:44 2023
  Analysis ended on:  Thu Jul 13 10:45:56 2023
  Total elapsed time: 00:00:12