
  OWA STORM WATER MANAGEMENT MODEL - VERSION v5.1.14 (OWA 2022-07-31)
  --------------------------------------------------------------

  WARNING 04: minimum elevation drop used for Conduit WS02004404WS02004405
  WARNING 03: negative offset ignored for Link YS02001904YS02001907
  
  *********************************************************
  NOTE: The summary statistics displayed in this report are
  based on results found at every computational time step,  
  not just on results from each reporting time step.
  *********************************************************
  
  ****************
  Analysis Options
  ****************
  Flow Units ............... LPS
  Process Models:
    Rainfall/Runoff ........ YES
    RDII ................... NO
    Snowmelt ............... NO
    Groundwater ............ NO
    Flow Routing ........... YES
    Ponding Allowed ........ NO
    Water Quality .......... NO
  Infiltration Method ...... HORTON
  Flow Routing Method ...... DYNWAVE
  Surcharge Method ......... EXTRAN
  Starting Date ............ 08/28/2015 08:00:00
  Ending Date .............. 08/28/2015 16:00:00
  Antecedent Dry Days ...... 8.0
  Report Time Step ......... 00:01:00
  Wet Time Step ............ 00:01:00
  Dry Time Step ............ 00:01:00
  Routing Time Step ........ 30.00 sec
  Variable Time Step ....... YES
  Maximum Trials ........... 8
  Number of Threads ........ 1
  Head Tolerance ........... 0.001500 m
  
  
  **************************        Volume         Depth
  Runoff Quantity Continuity     hectare-m            mm
  **************************     ---------       -------
  Initial LID Storage ......         0.072         1.184
  Total Precipitation ......         3.478        57.413
  Evaporation Loss .........         0.000         0.000
  Infiltration Loss ........         0.203         3.347
  Surface Runoff ...........         2.642        43.613
  Final Storage ............         0.706        11.657
  Continuity Error (%) .....        -0.035
  
  
  **************************        Volume        Volume
  Flow Routing Continuity        hectare-m      10^6 ltr
  **************************     ---------     ---------
  Dry Weather Inflow .......         0.630         6.296
  Wet Weather Inflow .......         2.642        26.419
  Groundwater Inflow .......         0.000         0.000
  RDII Inflow ..............         0.000         0.000
  External Inflow ..........         0.105         1.045
  External Outflow .........         2.221        22.215
  Flooding Loss ............         1.145        11.451
  Evaporation Loss .........         0.000         0.000
  Exfiltration Loss ........         0.000         0.000
  Initial Stored Volume ....         0.303         3.031
  Final Stored Volume ......         0.319         3.189
  Continuity Error (%) .....        -0.176
  
  
  *************************
  Highest Continuity Errors
  *************************
  Node YS02001583 (-6.20%)
  Node YS02001884 (5.14%)
  Node WS02006256 (2.62%)
  Node YS02001774 (1.78%)
  Node HS02004842 (1.66%)
  
  
  ***************************
  Time-Step Critical Elements
  ***************************
  Link WS02006280WS02006229 (64.41%)
  Link WS02006238WS02006235 (7.49%)
  Link YS02001791YS02001793 (6.28%)
  Link WS02004404WS02004405 (6.20%)
  Link WS02006252WS02006251 (2.34%)
  
  
  ********************************
  Highest Flow Instability Indexes
  ********************************
  Link WS02006113WS02006111 (28)
  Link WS02004404WS02004405 (23)
  Link WS02006238WS02006235 (23)
  Link WS02006256WS02006235 (22)
  Link WS02006229WS02006228 (22)
  
  
  *************************
  Routing Time Step Summary
  *************************
  Minimum Time Step           :     0.01 sec
  Average Time Step           :     2.80 sec
  Maximum Time Step           :     6.46 sec
  Percent in Steady State     :    -0.00
  Average Iterations per Step :     3.68
  Percent Not Converging      :    17.45
  
  
  ***************************
  Subcatchment Runoff Summary
  ***************************
  
  ------------------------------------------------------------------------------------------------------------------------------
                            Total      Total      Total      Total     Imperv       Perv      Total       Total     Peak  Runoff
                           Precip      Runon       Evap      Infil     Runoff     Runoff     Runoff      Runoff   Runoff   Coeff
  Subcatchment                 mm         mm         mm         mm         mm         mm         mm    10^6 ltr      LPS
  ------------------------------------------------------------------------------------------------------------------------------
  sub0                      57.41       0.00       0.00       1.00      52.14       3.02      55.16        0.04    29.55   0.961
  sub1                      57.41       0.00       0.00       1.51      44.68       4.15      48.83        0.32   184.15   0.851
  sub10                     57.41       0.00       0.00       0.97      41.88       2.77      44.64        0.49   289.26   0.778
  sub11                     57.41       0.00       0.00       0.88      38.92       2.58      41.50        0.48   298.06   0.723
  sub12                     57.41       0.00       0.00       1.55      39.57       4.51      44.08        0.39   252.60   0.768
  sub14                     57.41       0.00       0.00       0.96      36.86       2.78      39.63        0.38   230.64   0.690
  sub15                     57.41       0.00       0.00       4.33      33.14      10.22      43.36        0.75   408.99   0.755
  sub16                     57.41       0.00       0.00       4.61      32.32      11.70      44.02        0.46   276.52   0.767
  sub17                     57.41       0.00       0.00       4.93      35.67      12.27      47.94        0.41   240.76   0.835
  sub2                      57.41       0.00       0.00       6.81      32.66      12.87      45.53        0.42   194.29   0.793
  sub22                     57.41       0.00       0.00       7.66      30.93      16.25      47.18        2.98  1504.30   0.822
  sub23                     57.41       0.00       0.00       5.77      31.85      13.40      45.25        2.16  1184.78   0.788
  sub3                      57.41       0.00       0.00       7.28      32.34      12.22      44.56        1.00   419.06   0.776
  sub4                      57.41       0.00       0.00       1.64      44.00       3.95      47.94        1.00   454.59   0.835
  sub5                      57.41       0.00       0.00       0.86      43.23       2.47      45.70        0.52   298.19   0.796
  sub60                     57.41       0.00       0.00       1.38      38.06       3.94      42.01        0.55   344.15   0.732
  sub61                     57.41       0.00       0.00       2.11      38.03       5.87      43.90        0.81   502.00   0.765
  sub62                     57.41       0.00       0.00       0.94      40.54       2.68      43.22        1.18   691.54   0.753
  sub63                     57.41       0.00       0.00       3.86      32.57       9.77      42.34        0.96   568.40   0.738
  sub64                     57.41       0.00       0.00       1.85      37.09       4.86      41.94        1.01   562.22   0.731
  sub65                     57.41       0.00       0.00       1.70      40.03       4.43      44.46        1.22   658.10   0.774
  sub66                     57.41       0.00       0.00       4.48      31.49       8.72      40.21        1.87   851.21   0.700
  sub67                     57.41       0.00       0.00       0.93      41.57       2.77      44.34        0.82   533.80   0.772
  sub68                     57.41       0.00       0.00       1.62      36.71       4.50      41.21        1.13   687.56   0.718
  sub69                     57.41       0.00       0.00       1.48      38.59       5.35      43.94        1.63   852.21   0.765
  sub7                      57.41       0.00       0.00       1.02      39.51       2.98      42.49        0.14    89.70   0.740
  sub70                     57.41       0.00       0.00       4.92      30.91      11.06      41.97        1.21   494.17   0.731
  sub71                     57.41       0.00       0.00       0.86      36.83       2.42      39.25        1.03   569.61   0.684
  sub72                     57.41       0.00       0.00       0.82      39.78       2.25      42.03        0.58   295.02   0.732
  sub8                      57.41       0.00       0.00       1.00      38.39       2.89      41.28        0.26   161.97   0.719
  sub9                      57.41       0.00       0.00       0.97      37.22       2.80      40.02        0.19   118.04   0.697
  

  ***********************
  LID Performance Summary
  ***********************

  --------------------------------------------------------------------------------------------------------------------
                                         Total      Evap     Infil   Surface    Drain    Initial     Final  Continuity
                                        Inflow      Loss      Loss   Outflow   Outflow   Storage   Storage       Error
  Subcatchment      LID Control             mm        mm        mm        mm        mm        mm        mm           %
  --------------------------------------------------------------------------------------------------------------------
  sub1              GreenRoof            57.41      0.00      0.00      0.00      0.00      7.05     64.53       -0.11
  sub10             GreenRoof            57.41      0.00      0.00      0.00      0.00      7.05     64.53       -0.11
  sub11             GreenRoof            57.41      0.00      0.00      0.00      0.00      7.05     64.53       -0.11
  sub12             GreenRoof            57.41      0.00      0.00      0.00      0.00      7.05     64.53       -0.11
  sub14             GreenRoof            57.41      0.00      0.00      0.00      0.00      7.05     64.53       -0.11
  sub15             GreenRoof            57.41      0.00      0.00      0.00      0.00      7.05     64.53       -0.11
  sub16             GreenRoof            57.41      0.00      0.00      0.00      0.00      7.05     64.53       -0.11
  sub17             GreenRoof            57.41      0.00      0.00      0.00      0.00      7.05     64.53       -0.11
  sub2              GreenRoof            57.41      0.00      0.00      0.00      0.00      7.05     64.53       -0.11
  sub22             GreenRoof            57.41      0.00      0.00      0.00      0.00      7.05     64.53       -0.11
  sub23             GreenRoof            57.41      0.00      0.00      0.00      0.00      7.05     64.53       -0.11
  sub3              GreenRoof            57.41      0.00      0.00      0.00      0.00      7.05     64.53       -0.11
  sub4              GreenRoof            57.41      0.00      0.00      0.00      0.00      7.05     64.53       -0.11
  sub5              GreenRoof            57.41      0.00      0.00      0.00      0.00      7.05     64.53       -0.11
  sub60             GreenRoof            57.41      0.00      0.00      0.00      0.00      7.05     64.53       -0.11
  sub61             GreenRoof            57.41      0.00      0.00      0.00      0.00      7.05     64.53       -0.11
  sub62             GreenRoof            57.41      0.00      0.00      0.00      0.00      7.05     64.53       -0.11
  sub63             GreenRoof            57.41      0.00      0.00      0.00      0.00      7.05     64.53       -0.11
  sub64             GreenRoof            57.41      0.00      0.00      0.00      0.00      7.05     64.53       -0.11
  sub65             GreenRoof            57.41      0.00      0.00      0.00      0.00      7.05     64.53       -0.11
  sub66             GreenRoof            57.41      0.00      0.00      0.00      0.00      7.05     64.53       -0.11
  sub67             GreenRoof            57.41      0.00      0.00      0.00      0.00      7.05     64.53       -0.11
  sub68             GreenRoof            57.41      0.00      0.00      0.00      0.00      7.05     64.53       -0.11
  sub69             GreenRoof            57.41      0.00      0.00      0.00      0.00      7.05     64.53       -0.11
  sub7              GreenRoof            57.41      0.00      0.00      0.00      0.00      7.05     64.53       -0.11
  sub70             GreenRoof            57.41      0.00      0.00      0.00      0.00      7.05     64.53       -0.11
  sub71             GreenRoof            57.41      0.00      0.00      0.00      0.00      7.05     64.53       -0.11
  sub72             GreenRoof            57.41      0.00      0.00      0.00      0.00      7.05     64.53       -0.11
  sub8              GreenRoof            57.41      0.00      0.00      0.00      0.00      7.05     64.53       -0.11
  sub9              GreenRoof            57.41      0.00      0.00      0.00      0.00      7.05     64.53       -0.11
  
  ******************
  Node Depth Summary
  ******************
  
  ---------------------------------------------------------------------------------
                                 Average  Maximum  Maximum  Time of Max    Reported
                                   Depth    Depth      HGL   Occurrence   Max Depth
  Node                 Type       Meters   Meters   Meters  days hr:min      Meters
  ---------------------------------------------------------------------------------
  HS02004478           JUNCTION     0.25     1.59    10.81     0  01:59        1.52
  HS02004479           JUNCTION     0.33     1.70    10.91     0  01:59        1.66
  HS02004480           JUNCTION     0.30     1.68    10.93     0  01:59        1.63
  HS02004770           JUNCTION     0.30     1.42    11.25     0  01:56        1.42
  HS02004777           JUNCTION     0.32     1.48    11.28     0  01:56        1.45
  HS02004785           JUNCTION     0.21     1.49    11.39     0  01:56        1.33
  HS02004788           JUNCTION     0.17     1.42    11.32     0  01:56        1.32
  HS02004792           JUNCTION     0.24     1.60    11.12     0  01:56        1.60
  HS02004799           JUNCTION     0.36     1.76    10.97     0  01:59        1.76
  HS02004802           JUNCTION     0.35     1.80    10.93     0  01:59        1.69
  HS02004807           JUNCTION     0.31     1.92    11.09     0  01:59        1.75
  HS02004817           JUNCTION     0.62     2.44    11.29     0  01:59        2.15
  HS02004824           JUNCTION     0.18     2.01    11.41     0  01:59        1.65
  HS02004830           JUNCTION     0.17     2.03    11.50     0  01:59        1.63
  HS02004837           JUNCTION     0.14     2.01    11.59     0  01:59        1.55
  HS02004842           JUNCTION     0.43     2.22    11.49     0  01:59        1.87
  HS02004848           JUNCTION     0.12     2.05    11.65     0  01:59        1.54
  HS02004852           JUNCTION     0.12     2.12    11.63     0  01:59        1.58
  HS02004856           JUNCTION     0.18     2.07    11.50     0  01:59        1.61
  HS02004862           JUNCTION     0.14     2.00    11.38     0  01:59        1.58
  HS02004870           JUNCTION     0.13     2.10    11.39     0  01:59        1.57
  HS02004876           JUNCTION     0.19     1.95    10.98     0  01:59        1.68
  HS02004881           JUNCTION     0.12     1.68    10.71     0  01:59        1.48
  HS02004901           JUNCTION     0.30     1.42    11.24     0  01:56        1.42
  WS02001211           JUNCTION     0.64     0.81     5.64     0  02:05        0.81
  WS02001212           JUNCTION     0.38     0.57     5.63     0  02:05        0.57
  WS02001213           JUNCTION     0.60     0.86     5.63     0  02:05        0.86
  WS02003059           JUNCTION     0.66     0.93     5.62     0  02:05        0.93
  WS02003060           JUNCTION     0.38     0.68     5.61     0  02:05        0.68
  WS02003066           JUNCTION     0.23     0.45     6.01     0  02:02        0.45
  WS02003067           JUNCTION     0.54     0.88     6.20     0  02:01        0.88
  WS02003069           JUNCTION     0.43     0.77     5.36     0  02:06        0.77
  WS02003072           JUNCTION     0.49     0.81     5.18     0  02:05        0.81
  WS02003073           JUNCTION     0.29     0.51     4.58     0  02:06        0.51
  WS02004138           JUNCTION     0.13     0.14     7.39     0  00:29        0.14
  WS02004139           JUNCTION     0.58     0.74     5.65     0  02:05        0.74
  WS02004401           JUNCTION     0.77     1.82     7.82     0  02:01        1.81
  WS02004402           JUNCTION     0.79     1.76     7.72     0  02:01        1.75
  WS02004403           JUNCTION     0.79     1.68     7.61     0  02:01        1.67
  WS02004404           JUNCTION     0.85     1.70     7.55     0  02:01        1.69
  WS02004405           JUNCTION     0.84     1.65     7.50     0  02:02        1.64
  WS02004406           JUNCTION     0.83     1.55     7.38     0  02:03        1.55
  WS02004407           JUNCTION     0.26     0.89     7.21     0  02:02        0.89
  WS02004409           JUNCTION     0.53     1.37     7.14     0  02:02        1.36
  WS02004410           JUNCTION     0.54     1.28     7.00     0  02:01        1.27
  WS02004411           JUNCTION     0.54     1.19     6.87     0  02:02        1.18
  WS02004412           JUNCTION     0.54     1.10     6.74     0  02:03        1.09
  WS02004413           JUNCTION     0.68     1.14     6.61     0  02:03        1.14
  WS02006109           JUNCTION     1.00     2.64     9.26     0  01:56        2.64
  WS02006110           JUNCTION     0.93     2.37     8.96     0  02:01        2.37
  WS02006111           JUNCTION     0.45     1.69     8.39     0  02:02        1.68
  WS02006112           JUNCTION     0.99     2.31     8.20     0  02:02        2.31
  WS02006113           JUNCTION     0.52     1.79     8.68     0  02:01        1.78
  WS02006115           JUNCTION     0.70     1.90     8.04     0  02:01        1.90
  WS02006116           JUNCTION     0.77     1.90     7.94     0  02:01        1.88
  WS02006228           JUNCTION     1.06     3.03     9.68     0  01:59        3.01
  WS02006229           JUNCTION     1.07     3.25     9.94     0  01:59        3.19
  WS02006230           JUNCTION     0.99     2.65     9.39     0  01:53        2.65
  WS02006231           JUNCTION     0.70     2.23     9.35     0  02:06        2.23
  WS02006232           JUNCTION     0.78     2.18     9.22     0  01:53        2.18
  WS02006234           JUNCTION     0.66     1.96     9.12     0  01:53        1.96
  WS02006235           JUNCTION     0.66     1.98     9.15     0  02:25        1.93
  WS02006238           JUNCTION     0.68     2.00     9.14     0  02:25        1.93
  WS02006239           JUNCTION     0.61     1.85     9.06     0  02:25        1.82
  WS02006240           JUNCTION     0.56     1.68     8.97     0  02:06        1.68
  WS02006242           JUNCTION     0.59     1.55     8.82     0  00:05        1.55
  WS02006243           JUNCTION     0.48     1.48     8.90     0  01:45        1.39
  WS02006245           JUNCTION     0.46     1.56     9.04     0  01:45        1.29
  WS02006247           JUNCTION     0.46     1.47     8.97     0  01:45        1.24
  WS02006248           JUNCTION     0.41     1.10     8.69     0  00:05        1.10
  WS02006249           JUNCTION     0.42     1.09     8.69     0  00:05        1.09
  WS02006251           JUNCTION     0.50     2.21     9.88     0  02:24        2.08
  WS02006252           JUNCTION     0.29     1.50     9.74     0  00:00        1.50
  WS02006253           JUNCTION     0.58     3.52    11.16     0  01:45        2.79
  WS02006256           JUNCTION     0.93     2.35     9.28     0  00:00        2.35
  WS02006280           JUNCTION     0.33     1.78    10.05     0  01:59        1.71
  WS02006284           JUNCTION     0.59     1.98    10.38     0  01:59        1.91
  WS02006287           JUNCTION     0.32     1.75    10.71     0  01:59        1.68
  WSF200               JUNCTION     0.22     0.52     5.75     0  02:04        0.52
  YS02001580           JUNCTION     0.08     1.05     9.59     0  01:56        0.77
  YS02001583           JUNCTION     0.11     1.14     9.64     0  01:56        0.82
  YS02001586           JUNCTION     0.19     1.13     9.30     0  01:56        1.13
  YS02001590           JUNCTION     0.29     1.40     9.26     0  01:56        1.38
  YS02001593           JUNCTION     0.22     1.34     9.20     0  01:56        1.30
  YS02001596           JUNCTION     0.31     1.68     9.10     0  01:56        1.66
  YS02001600           JUNCTION     0.39     1.87     9.00     0  01:56        1.87
  YS02001601           JUNCTION     0.58     2.06     8.90     0  01:56        2.06
  YS02001602           JUNCTION     0.49     1.87     8.77     0  01:56        1.87
  YS02001605           JUNCTION     0.45     1.78     8.68     0  01:56        1.77
  YS02001607           JUNCTION     0.43     1.65     8.50     0  02:03        1.65
  YS02001610           JUNCTION     0.47     1.68     8.48     0  01:56        1.68
  YS02001613           JUNCTION     0.43     1.65     8.49     0  02:01        1.65
  YS02001616           JUNCTION     0.36     1.59     8.50     0  02:03        1.59
  YS02001619           JUNCTION     0.34     1.58     8.51     0  02:03        1.58
  YS02001622           JUNCTION     0.33     1.58     8.48     0  02:03        1.58
  YS02001625           JUNCTION     0.58     1.78     8.38     0  01:56        1.78
  YS02001629           JUNCTION     0.45     1.85     8.40     0  01:56        1.85
  YS02001633           JUNCTION     0.52     2.01     8.47     0  02:01        2.01
  YS02001641           JUNCTION     0.50     1.95     8.39     0  02:02        1.95
  YS02001644           JUNCTION     0.49     1.92     8.35     0  02:01        1.92
  YS02001647           JUNCTION     0.26     1.75     8.36     0  02:03        1.75
  YS02001649           JUNCTION     0.28     1.95     8.34     0  02:03        1.95
  YS02001652           JUNCTION     0.17     1.76     8.36     0  02:03        1.76
  YS02001655           JUNCTION     0.11     1.76     8.61     0  02:01        1.47
  YS02001658           JUNCTION     0.09     1.69     8.83     0  02:01        1.11
  YS02001661           JUNCTION     0.13     0.89     8.29     0  02:02        0.87
  YS02001664           JUNCTION     0.06     0.29     8.21     0  02:01        0.29
  YS02001745           JUNCTION     0.05     0.63     8.14     0  02:02        0.52
  YS02001748           JUNCTION     0.07     1.08     8.15     0  02:03        1.00
  YS02001751           JUNCTION     0.08     1.54     8.42     0  02:01        1.18
  YS02001754           JUNCTION     0.12     1.66     8.27     0  02:01        1.56
  YS02001757           JUNCTION     0.28     1.97     8.23     0  02:03        1.97
  YS02001759           JUNCTION     0.22     2.05     8.41     0  02:03        2.05
  YS02001762           JUNCTION     0.21     2.13     8.53     0  02:03        2.13
  YS02001765           JUNCTION     0.19     2.10     8.55     0  02:03        2.10
  YS02001767           JUNCTION     0.19     2.03     8.52     0  02:03        2.03
  YS02001770           JUNCTION     0.21     1.95     8.44     0  02:03        1.95
  YS02001774           JUNCTION     0.27     2.05     8.47     0  02:03        2.05
  YS02001779           JUNCTION     0.10     1.68     8.37     0  02:00        1.68
  YS02001783           JUNCTION     0.25     1.40     7.54     0  02:00        1.40
  YS02001784           JUNCTION     0.26     1.21     7.28     0  02:00        1.20
  YS02001786           JUNCTION     0.22     0.95     6.98     0  02:00        0.86
  YS02001788           JUNCTION     0.16     0.62     6.60     0  02:00        0.62
  YS02001790           JUNCTION     0.19     0.72     6.37     0  02:03        0.72
  YS02001791           JUNCTION     0.12     0.44     5.91     0  02:00        0.43
  YS02001793           JUNCTION     0.06     0.30     5.13     0  02:03        0.28
  YS02001882           JUNCTION     0.30     1.71     8.43     0  02:00        1.71
  YS02001884           JUNCTION     0.39     1.80     8.41     0  02:00        1.80
  YS02001887           JUNCTION     0.47     1.84     8.38     0  02:00        1.84
  YS02001890           JUNCTION     0.50     1.81     8.32     0  01:59        1.81
  YS02001895           JUNCTION     0.27     1.57     8.32     0  01:59        1.57
  YS02001898           JUNCTION     0.28     1.58     8.31     0  02:00        1.58
  YS02001901           JUNCTION     0.39     1.69     8.30     0  02:06        1.69
  YS02001904           JUNCTION     0.37     1.65     8.28     0  02:03        1.65
  YS02001907           JUNCTION     0.69     1.96     8.25     0  02:00        1.96
  YS02001910           JUNCTION     0.49     1.97     8.48     0  02:00        1.80
  YS02001915           JUNCTION     0.30     1.92     8.64     0  02:00        1.64
  YS02001918           JUNCTION     0.15     1.81     8.88     0  02:00        1.35
  YS02001920           JUNCTION     0.23     2.14     9.15     0  02:00        1.48
  YS02001923           JUNCTION     0.11     2.03     9.29     0  02:00        1.32
  YS02001926           JUNCTION     0.15     1.90     9.35     0  02:00        1.18
  YS02001929           JUNCTION     0.08     1.78     9.47     0  02:00        1.00
  YS02006553           JUNCTION     0.69     2.00     8.29     0  02:00        1.99
  YS02006556           JUNCTION     0.66     2.01     8.32     0  02:00        2.00
  YS02006558           JUNCTION     0.71     2.08     8.35     0  02:00        2.08
  YS02006561           JUNCTION     0.15     1.12     7.78     0  02:00        1.12
  YS02163301           JUNCTION     0.47     1.92     8.43     0  02:01        1.91
  YS02163601           JUNCTION     0.56     2.04     8.44     0  02:02        2.04
  YS02164001           JUNCTION     0.49     1.96     8.42     0  02:02        1.96
  YSB1154              JUNCTION     0.47     1.87    10.93     0  02:00        1.87
  YSB1171              JUNCTION     0.61     1.95    10.85     0  01:57        1.95
  YSB1174              JUNCTION     0.42     1.78    10.89     0  02:01        1.78
  YSB6556              JUNCTION     0.36     1.72    10.88     0  01:59        1.71
  CC-1                 OUTFALL      0.00     0.00     0.00     0  00:00        0.00
  CC-2                 OUTFALL      0.00     0.00     0.00     0  00:00        0.00
  JK-1                 OUTFALL      0.00     0.00     0.00     0  00:00        0.00
  JK-2                 OUTFALL      0.00     0.00     0.00     0  00:00        0.00
  WSC                  OUTFALL      0.29     0.51     1.18     0  02:06        0.51
  CC-storage           STORAGE      0.52     0.80     6.30     0  00:00        0.76
  JK-storage           STORAGE      1.44     4.24     5.04     0  02:13        4.20
  XR-storage           STORAGE      7.85     9.26     7.26     0  08:00        9.26
  
  
  *******************
  Node Inflow Summary
  *******************
  
  -------------------------------------------------------------------------------------------------
                                  Maximum  Maximum                  Lateral       Total        Flow
                                  Lateral    Total  Time of Max      Inflow      Inflow     Balance
                                   Inflow   Inflow   Occurrence      Volume      Volume       Error
  Node                 Type           LPS      LPS  days hr:min    10^6 ltr    10^6 ltr     Percent
  -------------------------------------------------------------------------------------------------
  HS02004478           JUNCTION      0.00  2263.48     0  02:03           0         7.8      -0.005
  HS02004479           JUNCTION      0.00   466.00     0  01:59           0       0.758       0.124
  HS02004480           JUNCTION      0.00  2124.20     0  01:57           0        6.09       0.039
  HS02004770           JUNCTION   1184.78  1184.78     0  02:02        2.16        2.39       0.126
  HS02004777           JUNCTION      0.03   753.60     0  01:56    0.000864        1.82       0.286
  HS02004785           JUNCTION      0.15   771.48     0  01:56     0.00432        1.82       0.023
  HS02004788           JUNCTION    410.66   857.32     0  01:56       0.794        2.61      -0.009
  HS02004792           JUNCTION   1504.58  2241.99     0  02:02        2.99         5.6       0.010
  HS02004799           JUNCTION    230.64  1776.88     0  01:57       0.377        5.36       0.051
  HS02004802           JUNCTION      0.00   847.85     0  02:03           0        1.74       0.228
  HS02004807           JUNCTION    298.06   846.93     0  02:03       0.482        1.79       0.236
  HS02004817           JUNCTION      0.60   561.32     0  02:03      0.0173        1.36       1.220
  HS02004824           JUNCTION    454.64   658.36     0  01:57           1        1.58       0.045
  HS02004830           JUNCTION      0.15   654.16     0  01:57     0.00432       0.812       0.174
  HS02004837           JUNCTION    295.61   850.11     0  01:57       0.675        1.13       0.060
  HS02004842           JUNCTION      0.00   839.75     0  01:57           0       0.773       1.688
  HS02004848           JUNCTION    419.06  1091.27     0  01:59           1         1.6       0.008
  HS02004852           JUNCTION      0.00  1092.01     0  01:59           0        1.44       0.009
  HS02004856           JUNCTION    118.04  1194.55     0  01:59       0.192        1.63       0.035
  HS02004862           JUNCTION    194.49  1283.66     0  01:59        0.43        2.06      -0.024
  HS02004870           JUNCTION    161.97  1356.71     0  01:59       0.264        2.32       0.002
  HS02004876           JUNCTION    184.15  1406.91     0  01:59       0.325        2.65       0.027
  HS02004881           JUNCTION     89.70  1463.12     0  01:59       0.143        2.81      -0.024
  HS02004901           JUNCTION    276.52   510.37     0  02:03       0.461        0.69       0.259
  WS02001211           JUNCTION      7.35   206.41     0  01:52       0.212        5.44       0.611
  WS02001212           JUNCTION      0.00   210.14     0  02:40           0        5.41       0.291
  WS02001213           JUNCTION      0.00   214.36     0  02:40           0        5.39       0.332
  WS02003059           JUNCTION      0.00   220.12     0  03:11           0        5.38       0.596
  WS02003060           JUNCTION     16.53  1485.60     0  02:05       0.476        12.9       0.114
  WS02003066           JUNCTION      0.00  1282.67     0  02:02           0        7.12       0.021
  WS02003067           JUNCTION      0.00  1282.71     0  02:02           0        7.13       0.062
  WS02003069           JUNCTION      0.32  1485.52     0  02:05     0.00922        12.9       0.120
  WS02003072           JUNCTION      0.00  1485.45     0  02:06           0        12.9       0.162
  WS02003073           JUNCTION      1.82  1487.23     0  02:06      0.0524        12.9       0.168
  WS02004138           JUNCTION      0.00   380.00     0  00:00           0        5.25       0.054
  WS02004139           JUNCTION      0.32   191.08     0  00:29     0.00924        5.26       0.508
  WS02004401           JUNCTION      0.00  1282.30     0  02:02           0        7.23       0.148
  WS02004402           JUNCTION      0.00  1282.50     0  02:01           0        7.22       0.148
  WS02004403           JUNCTION      0.00  1282.05     0  02:02           0        7.21       0.144
  WS02004404           JUNCTION      0.16  1282.92     0  02:01     0.00467        7.21       0.119
  WS02004405           JUNCTION      0.04  1282.46     0  02:01      0.0011         7.2       0.176
  WS02004406           JUNCTION      0.00  1282.68     0  02:02           0        7.19       0.298
  WS02004407           JUNCTION      0.00  1282.47     0  02:01           0        7.16       0.021
  WS02004409           JUNCTION      0.00  1282.51     0  02:02           0        7.16       0.042
  WS02004410           JUNCTION      0.00  1282.83     0  02:02           0        7.16       0.068
  WS02004411           JUNCTION      0.00  1282.54     0  02:02           0        7.15       0.086
  WS02004412           JUNCTION      0.00  1282.90     0  02:02           0        7.15       0.112
  WS02004413           JUNCTION      0.00  1282.87     0  02:02           0        7.14       0.196
  WS02006109           JUNCTION      1.23  1268.20     0  02:03      0.0354        7.02       0.154
  WS02006110           JUNCTION      0.00  1119.01     0  02:16           0        6.86       0.101
  WS02006111           JUNCTION      0.00  1119.10     0  02:16           0        6.85       0.015
  WS02006112           JUNCTION    240.76  1282.55     0  02:02       0.411        7.26       0.269
  WS02006113           JUNCTION      0.00  1119.03     0  02:16           0        6.86       0.029
  WS02006115           JUNCTION      0.00  1282.38     0  02:01           0        7.24       0.095
  WS02006116           JUNCTION      0.00  1282.44     0  02:01           0        7.24       0.073
  WS02006228           JUNCTION      0.00  1267.61     0  02:03           0        6.99       0.084
  WS02006229           JUNCTION      0.00  2262.56     0  02:02           0        8.91       0.081
  WS02006230           JUNCTION     10.28  1005.48     0  02:03       0.296        3.08       0.304
  WS02006231           JUNCTION      0.00   453.49     0  02:06           0        2.08      -0.149
  WS02006232           JUNCTION      0.00   453.52     0  02:08           0        2.08       0.226
  WS02006234           JUNCTION      0.00   487.01     0  00:06           0        2.07      -0.288
  WS02006235           JUNCTION      0.00   505.12     0  00:06           0        2.04       0.329
  WS02006238           JUNCTION      0.00   507.27     0  00:06           0        1.97      -0.280
  WS02006239           JUNCTION      0.00   534.54     0  00:06           0        1.93      -0.204
  WS02006240           JUNCTION      0.00   594.65     0  00:05           0        1.92      -0.059
  WS02006242           JUNCTION      0.00   617.08     0  00:05           0        1.92      -0.053
  WS02006243           JUNCTION      0.00   667.43     0  00:05           0        1.59      -0.273
  WS02006245           JUNCTION      0.00   672.02     0  00:05           0         1.6       0.795
  WS02006247           JUNCTION      0.00   671.19     0  00:05           0         1.6      -0.058
  WS02006248           JUNCTION      0.00   672.67     0  00:05           0        1.82      -0.256
  WS02006249           JUNCTION      0.00  1329.16     0  02:01           0        3.99       0.288
  WS02006251           JUNCTION      0.08  1497.42     0  01:59     0.00222        4.11      -0.054
  WS02006252           JUNCTION      0.00  2000.00     0  00:05           0        2.99      -0.965
  WS02006253           JUNCTION     29.55  1494.32     0  01:59      0.0447        2.95      -0.086
  WS02006256           JUNCTION      0.00  1500.00     0  00:35           0         1.1       2.686
  WS02006280           JUNCTION      0.00  2261.64     0  02:02           0        7.79       0.008
  WS02006284           JUNCTION      0.10  2261.60     0  02:02     0.00275        7.79      -0.011
  WS02006287           JUNCTION      0.00  2262.21     0  02:02           0        7.78       0.011
  WSF200               JUNCTION      0.00  1282.60     0  02:02           0        7.12       0.011
  YS02001580           JUNCTION      0.00   112.32     0  01:56           0     0.00394      -5.807
  YS02001583           JUNCTION      0.00   174.93     0  01:56           0      0.0148      -5.835
  YS02001586           JUNCTION    494.17   494.20     0  02:04        1.21        1.22       0.109
  YS02001590           JUNCTION      0.00   318.47     0  02:06           0         1.1      -0.037
  YS02001593           JUNCTION      0.00   318.22     0  02:06           0         1.1       0.012
  YS02001596           JUNCTION      0.00   318.02     0  02:16           0         1.1      -0.006
  YS02001600           JUNCTION      0.00   318.03     0  02:06           0         1.1       0.006
  YS02001601           JUNCTION    852.21  1169.88     0  02:03        1.63        2.73       0.032
  YS02001602           JUNCTION      0.00   518.26     0  01:56           0        2.02       0.019
  YS02001605           JUNCTION      0.00   517.94     0  01:56           0        1.96       0.012
  YS02001607           JUNCTION      0.00   517.21     0  01:56           0        1.96       0.097
  YS02001610           JUNCTION      0.00   518.76     0  01:55           0        1.96       0.115
  YS02001613           JUNCTION      0.00   519.25     0  01:56           0        1.75       0.096
  YS02001616           JUNCTION      0.00   523.36     0  01:55           0        1.75       0.023
  YS02001619           JUNCTION    851.21   941.16     0  02:16        1.87        3.62      -0.002
  YS02001622           JUNCTION      0.00   941.85     0  02:16           0        3.62       0.002
  YS02001625           JUNCTION      0.00   942.27     0  02:16           0        3.62       0.244
  YS02001629           JUNCTION      0.00   942.81     0  02:16           0        3.32       0.015
  YS02001633           JUNCTION    658.30  1425.32     0  01:59        1.23        4.54       0.076
  YS02001641           JUNCTION      0.00  1421.05     0  01:59           0        4.54       0.064
  YS02001644           JUNCTION    562.26  1853.47     0  01:59        1.01        5.54       0.060
  YS02001647           JUNCTION      0.00  1855.79     0  01:59           0        5.53       0.003
  YS02001649           JUNCTION      0.00  2166.97     0  01:59           0         6.5       0.005
  YS02001652           JUNCTION      0.00   641.54     0  02:03           0       0.965      -0.088
  YS02001655           JUNCTION      0.15   642.01     0  02:03     0.00443       0.966       0.051
  YS02001658           JUNCTION      0.00   756.80     0  02:01           0       0.961      -0.063
  YS02001661           JUNCTION      0.00   574.51     0  02:01           0       0.961       0.034
  YS02001664           JUNCTION    568.40   568.40     0  02:02       0.961       0.961      -0.005
  YS02001745           JUNCTION    344.15   344.15     0  02:02       0.552       0.552       0.170
  YS02001748           JUNCTION      0.04   580.97     0  02:03      0.0013       0.553      -0.298
  YS02001751           JUNCTION      0.01   478.77     0  02:04    0.000317       0.559       0.023
  YS02001754           JUNCTION      0.26   438.17     0  02:04     0.00749        0.57      -0.193
  YS02001757           JUNCTION      0.00  3381.68     0  02:03           0        9.07       0.019
  YS02001759           JUNCTION    502.04  1232.10     0  02:00       0.807        2.01      -0.007
  YS02001762           JUNCTION      0.00   733.04     0  02:00           0         1.2       0.013
  YS02001765           JUNCTION      0.00   723.21     0  02:00           0         1.2       0.025
  YS02001767           JUNCTION      0.54   715.16     0  02:00      0.0154         1.2      -0.004
  YS02001770           JUNCTION    691.69   704.92     0  02:01        1.19        1.23       0.003
  YS02001774           JUNCTION      0.00   291.29     0  02:00           0      0.0598       1.815
  YS02001779           JUNCTION      0.01   298.79     0  02:00    0.000144       0.018      -1.831
  YS02001783           JUNCTION      0.00  1153.65     0  02:01           0        3.26       0.006
  YS02001784           JUNCTION      1.06  1155.36     0  02:01      0.0305        3.29       0.015
  YS02001786           JUNCTION      0.06  1155.28     0  02:01     0.00162        3.29       0.018
  YS02001788           JUNCTION      0.07  1155.84     0  02:01     0.00204        3.29       0.009
  YS02001790           JUNCTION      0.15  1163.30     0  02:00     0.00446         3.3       0.012
  YS02001791           JUNCTION      0.00  1282.83     0  02:03           0         3.3      -0.013
  YS02001793           JUNCTION      0.00  1248.77     0  02:00           0         3.3       0.007
  YS02001882           JUNCTION      0.00    52.96     0  01:58           0      0.0125       5.201
  YS02001884           JUNCTION      0.00    75.74     0  01:58           0      0.0483       5.423
  YS02001887           JUNCTION    534.25   535.72     0  02:01       0.838       0.871       0.516
  YS02001890           JUNCTION      0.00   535.68     0  02:01           0        0.83       0.619
  YS02001895           JUNCTION      0.00   508.15     0  02:02           0        0.82       0.204
  YS02001898           JUNCTION      0.00   508.93     0  02:02           0       0.818       0.025
  YS02001901           JUNCTION      0.00   508.19     0  02:02           0       0.821       0.385
  YS02001904           JUNCTION      0.00   508.67     0  02:02           0       0.825       0.347
  YS02001907           JUNCTION      0.00  1508.56     0  02:01           0         2.5       0.720
  YS02001910           JUNCTION      0.00  1013.79     0  02:01           0        1.68       0.424
  YS02001915           JUNCTION    569.63  1013.33     0  02:01        1.03        1.73       0.090
  YS02001918           JUNCTION      0.00   453.90     0  02:01           0        0.73      -0.021
  YS02001920           JUNCTION      2.87   452.67     0  02:01      0.0827       0.712       0.133
  YS02001923           JUNCTION      0.04   424.99     0  02:00     0.00109       0.614      -0.161
  YS02001926           JUNCTION      0.05   653.27     0  02:00      0.0015       0.594      -0.059
  YS02001929           JUNCTION    295.02   511.78     0  02:00       0.578       0.581      -0.084
  YS02006553           JUNCTION      0.00   790.05     0  02:13           0        2.15       0.552
  YS02006556           JUNCTION      0.00   790.56     0  02:13           0        2.15       0.371
  YS02006558           JUNCTION    688.44  1166.96     0  01:59        1.16        3.29       0.108
  YS02006561           JUNCTION      0.00  1164.85     0  01:59           0        3.26       0.001
  YS02163301           JUNCTION      0.00   945.53     0  02:16           0        3.31       0.048
  YS02163601           JUNCTION      0.11  1423.91     0  01:59     0.00317        4.54       0.108
  YS02164001           JUNCTION      0.00  1422.00     0  01:59           0        4.54       0.057
  YSB1154              JUNCTION    298.19   298.19     0  02:02       0.518       0.519       0.286
  YSB1171              JUNCTION      0.00   548.42     0  02:02           0       0.911       0.694
  YSB1174              JUNCTION    252.60   252.60     0  02:01       0.385       0.386       0.336
  YSB6556              JUNCTION      0.00   298.24     0  02:02           0       0.519       0.239
  CC-1                 OUTFALL       0.00  3415.00     0  01:20           0        3.71       0.000
  CC-2                 OUTFALL       0.00  3415.00     0  00:05           0        3.26       0.000
  JK-1                 OUTFALL       0.00  5000.00     0  01:45           0        1.07       0.000
  JK-2                 OUTFALL       0.00  5000.00     0  01:50           0        1.24       0.000
  WSC                  OUTFALL       0.00  1487.68     0  02:06           0        12.9       0.000
  CC-storage           STORAGE       0.00  3383.13     0  02:03           0        11.3      -0.179
  JK-storage           STORAGE       0.00  1311.41     0  02:05           0        3.45      -0.543
  XR-storage           STORAGE     200.00   200.00     0  00:00        5.76        6.36       0.001
  
  
  **********************
  Node Surcharge Summary
  **********************
  
  Surcharging occurs when water rises above the top of the highest conduit.
  ---------------------------------------------------------------------
                                               Max. Height   Min. Depth
                                   Hours       Above Crown    Below Rim
  Node                 Type      Surcharged         Meters       Meters
  ---------------------------------------------------------------------
  HS02004478           JUNCTION        0.37          0.667        0.273
  HS02004479           JUNCTION        0.51          0.903        0.147
  HS02004480           JUNCTION        0.55          0.975        0.125
  HS02004770           JUNCTION        0.46          0.720        0.000
  HS02004777           JUNCTION        0.46          0.780        0.000
  HS02004785           JUNCTION        0.41          0.790        0.000
  HS02004788           JUNCTION        0.40          0.720        0.000
  HS02004792           JUNCTION        0.52          0.900        0.000
  HS02004799           JUNCTION        0.64          1.060        0.000
  HS02004802           JUNCTION        0.56          1.092        0.118
  HS02004807           JUNCTION        0.53          1.220        0.000
  HS02004817           JUNCTION        1.13          1.740        0.000
  HS02004824           JUNCTION        0.39          1.310        0.000
  HS02004830           JUNCTION        0.36          1.330        0.000
  HS02004837           JUNCTION        0.32          1.311        0.029
  HS02004842           JUNCTION        0.46          1.520        0.000
  HS02004848           JUNCTION        0.28          1.347        0.023
  HS02004852           JUNCTION        0.29          1.420        0.000
  HS02004856           JUNCTION        0.27          1.300        0.000
  HS02004862           JUNCTION        0.30          1.300        0.000
  HS02004870           JUNCTION        0.30          1.400        0.000
  HS02004876           JUNCTION        0.43          1.255        0.305
  HS02004881           JUNCTION        0.41          0.982        0.468
  HS02004901           JUNCTION        0.47          0.720        0.000
  WS02004401           JUNCTION        1.38          0.815        0.845
  WS02004402           JUNCTION        1.39          0.758        0.982
  WS02004403           JUNCTION        1.40          0.684        1.346
  WS02004404           JUNCTION        1.49          0.698        2.082
  WS02004405           JUNCTION        1.47          0.650        2.150
  WS02004406           JUNCTION        1.46          0.548        1.902
  WS02004409           JUNCTION        0.87          0.366        1.994
  WS02004410           JUNCTION        0.83          0.281        2.259
  WS02004411           JUNCTION        0.77          0.190        2.340
  WS02004412           JUNCTION        0.67          0.095        2.215
  WS02004413           JUNCTION        1.16          0.142        2.058
  WS02006109           JUNCTION        1.73          1.820        0.000
  WS02006110           JUNCTION        1.56          1.463        0.387
  WS02006111           JUNCTION        1.09          0.876        0.994
  WS02006112           JUNCTION        1.62          1.313        0.367
  WS02006113           JUNCTION        1.10          0.987        0.943
  WS02006115           JUNCTION        1.31          0.887        1.363
  WS02006116           JUNCTION        1.32          0.838        1.452
  WS02006228           JUNCTION        1.72          2.200        0.000
  WS02006229           JUNCTION        0.82          1.070        0.000
  WS02006230           JUNCTION        1.45          1.570        0.000
  WS02006231           JUNCTION        1.45          1.516        0.014
  WS02006232           JUNCTION        1.55          1.480        0.000
  WS02006234           JUNCTION        1.42          1.240        0.000
  WS02006235           JUNCTION        1.43          1.273        0.017
  WS02006238           JUNCTION        1.45          1.278        0.152
  WS02006239           JUNCTION        1.38          1.112        0.178
  WS02006240           JUNCTION        1.36          0.971        0.419
  WS02006242           JUNCTION        1.39          0.820        0.000
  WS02006243           JUNCTION        1.32          0.770        0.000
  WS02006245           JUNCTION        1.30          0.850        0.000
  WS02006247           JUNCTION        1.31          0.760        0.000
  WS02006248           JUNCTION        1.27          0.380        0.000
  WS02006249           JUNCTION        1.29          0.390        0.000
  WS02006251           JUNCTION        1.07          1.180        0.000
  WS02006252           JUNCTION        1.27          1.100        0.000
  WS02006253           JUNCTION        1.10          2.480        0.000
  WS02006256           JUNCTION        5.89          2.050        0.000
  WS02006280           JUNCTION        0.66          0.730        0.050
  WS02006284           JUNCTION        0.58          0.701        0.099
  WS02006287           JUNCTION        0.47          0.754        0.136
  YS02001580           JUNCTION        0.43          0.450        0.000
  YS02001583           JUNCTION        0.44          0.500        0.000
  YS02001586           JUNCTION        0.53          0.510        0.000
  YS02001590           JUNCTION        0.60          0.750        0.000
  YS02001593           JUNCTION        0.60          0.718        0.122
  YS02001596           JUNCTION        0.71          0.954        0.116
  YS02001600           JUNCTION        0.86          1.190        0.000
  YS02001601           JUNCTION        1.29          1.440        0.000
  YS02001602           JUNCTION        1.14          1.270        0.000
  YS02001605           JUNCTION        1.07          1.176        0.004
  YS02001607           JUNCTION        0.53          0.649        0.031
  YS02001610           JUNCTION        0.56          0.680        0.000
  YS02001613           JUNCTION        0.52          0.654        0.046
  YS02001616           JUNCTION        0.48          0.591        0.019
  YS02001619           JUNCTION        0.47          0.582        0.028
  YS02001622           JUNCTION        0.46          0.577        0.043
  YS02001625           JUNCTION        0.66          0.780        0.000
  YS02001629           JUNCTION        0.37          0.470        0.000
  YS02001633           JUNCTION        0.66          0.992        0.068
  YS02001641           JUNCTION        0.54          0.954        0.146
  YS02001644           JUNCTION        0.48          0.920        0.000
  YS02001647           JUNCTION        0.25          0.752        0.148
  YS02001649           JUNCTION        0.28          0.945        0.105
  YS02001652           JUNCTION        0.17          0.735        0.395
  YS02001655           JUNCTION        0.10          0.756        0.444
  YS02001658           JUNCTION        0.03          0.692        0.608
  YS02001751           JUNCTION        0.05          0.540        0.660
  YS02001754           JUNCTION        0.11          0.608        0.542
  YS02001757           JUNCTION        0.25          0.970        0.240
  YS02001759           JUNCTION        0.22          1.048        0.162
  YS02001762           JUNCTION        0.21          1.129        0.021
  YS02001765           JUNCTION        0.19          1.100        0.000
  YS02001767           JUNCTION        0.18          1.030        0.000
  YS02001770           JUNCTION        0.17          0.920        0.000
  YS02001774           JUNCTION        0.21          1.050        0.000
  YS02001779           JUNCTION        0.13          0.680        0.000
  YS02001783           JUNCTION        0.37          0.603        0.997
  YS02001784           JUNCTION        0.35          0.411        1.079
  YS02001786           JUNCTION        0.26          0.148        1.282
  YS02001882           JUNCTION        0.32          0.713        0.117
  YS02001884           JUNCTION        0.33          0.737        0.133
  YS02001887           JUNCTION        0.36          0.791        0.159
  YS02001890           JUNCTION        0.38          0.760        0.000
  YS02001895           JUNCTION        0.31          0.573        0.177
  YS02001898           JUNCTION        0.31          0.549        0.191
  YS02001901           JUNCTION        0.35          0.691        0.179
  YS02001904           JUNCTION        0.34          0.654        0.196
  YS02001907           JUNCTION        0.57          0.950        0.000
  YS02001910           JUNCTION        0.40          0.972        0.128
  YS02001915           JUNCTION        0.32          0.920        0.080
  YS02001918           JUNCTION        0.24          0.810        0.000
  YS02001920           JUNCTION        0.25          1.140        0.000
  YS02001923           JUNCTION        0.01          0.820        0.000
  YS02001926           JUNCTION        0.01          0.900        0.000
  YS02001929           JUNCTION        0.01          0.780        0.000
  YS02006553           JUNCTION        0.58          1.003        0.187
  YS02006556           JUNCTION        0.48          0.972        0.378
  YS02006558           JUNCTION        0.47          0.978        0.422
  YS02006561           JUNCTION        0.20          0.320        0.830
  YS02163301           JUNCTION        0.64          0.916        0.114
  YS02163601           JUNCTION        0.69          1.037        0.043
  YS02164001           JUNCTION        0.56          0.960        0.140
  YSB1154              JUNCTION        0.77          1.168        0.232
  YSB1171              JUNCTION        0.77          1.100        0.000
  YSB1174              JUNCTION        0.68          1.082        0.168
  YSB6556              JUNCTION        0.62          1.016        0.084
  
  
  *********************
  Node Flooding Summary
  *********************
  
  Flooding refers to all water that overflows a node, whether it ponds or not.
  --------------------------------------------------------------------------
                                                             Total   Maximum
                                 Maximum   Time of Max       Flood    Ponded
                        Hours       Rate    Occurrence      Volume     Depth
  Node                 Flooded       LPS   days hr:min    10^6 ltr    Meters
  --------------------------------------------------------------------------
  HS02004770              0.27    635.12      0  02:02       0.345     0.000
  HS02004777              0.01     67.62      0  01:56       0.001     0.000
  HS02004785              0.01    111.96      0  01:56       0.000     0.000
  HS02004788              0.01    229.95      0  01:56       0.001     0.000
  HS02004792              0.28   1099.42      0  02:02       0.616     0.000
  HS02004799              0.07     74.23      0  02:00       0.009     0.000
  HS02004807              0.01     26.06      0  01:59       0.000     0.000
  HS02004817              0.01      8.25      0  01:59       0.000     0.000
  HS02004824              0.01     15.94      0  01:59       0.000     0.000
  HS02004830              0.01     19.06      0  01:59       0.000     0.000
  HS02004842              0.01     96.14      0  01:59       0.001     0.000
  HS02004852              0.01    148.71      0  01:59       0.000     0.000
  HS02004856              0.01    228.12      0  01:59       0.001     0.000
  HS02004862              0.01    133.47      0  01:59       0.001     0.000
  HS02004870              0.01    191.47      0  01:59       0.000     0.000
  HS02004901              0.34    510.37      0  02:03       0.453     0.000
  WS02006109              0.32    226.56      0  02:02       0.151     0.000
  WS02006228              0.01      1.65      0  01:59       0.000     0.000
  WS02006229              0.01      2.92      0  01:59       0.000     0.000
  WS02006230              0.59    552.30      0  02:03       0.721     0.000
  WS02006232              0.14      1.25      0  02:06       0.000     0.000
  WS02006234              0.65    128.28      0  02:16       0.177     0.000
  WS02006242              0.74    138.75      0  00:05       0.320     0.000
  WS02006243              0.01     84.61      0  01:45       0.000     0.000
  WS02006245              0.01    119.08      0  01:45       0.000     0.000
  WS02006247              0.01    168.03      0  01:45       0.000     0.000
  WS02006248              1.02    342.10      0  01:54       1.044     0.000
  WS02006249              1.16   1267.75      0  02:01       2.971     0.000
  WS02006251              0.01    524.23      0  02:55       0.002     0.000
  WS02006252              0.58   1908.63      0  02:30       1.842     0.000
  WS02006253              0.01    486.49      0  01:45       0.001     0.000
  WS02006256              0.40   1490.98      0  01:50       0.899     0.000
  YS02001580              0.01     80.42      0  01:56       0.000     0.000
  YS02001583              0.01     36.76      0  01:56       0.000     0.000
  YS02001586              0.32    176.81      0  02:04       0.113     0.000
  YS02001590              0.01     10.30      0  01:56       0.000     0.000
  YS02001600              0.01      2.90      0  01:56       0.000     0.000
  YS02001601              0.45    772.04      0  02:03       0.706     0.000
  YS02001602              0.30     61.92      0  02:05       0.058     0.000
  YS02001610              0.25    348.21      0  02:04       0.210     0.000
  YS02001625              0.20    840.71      0  02:03       0.294     0.000
  YS02001629              0.04     87.20      0  01:56       0.004     0.000
  YS02001644              0.02     43.65      0  02:02       0.002     0.000
  YS02001765              0.01      2.62      0  02:03       0.000     0.000
  YS02001767              0.01      2.50      0  02:03       0.000     0.000
  YS02001770              0.01      7.82      0  02:03       0.000     0.000
  YS02001774              0.01      4.07      0  02:03       0.000     0.000
  YS02001779              0.01    205.44      0  02:00       0.001     0.000
  YS02001890              0.05     52.12      0  02:00       0.005     0.000
  YS02001907              0.19   1038.69      0  02:01       0.348     0.000
  YS02001918              0.01    224.09      0  02:00       0.003     0.000
  YS02001920              0.01     42.65      0  02:00       0.000     0.000
  YS02001923              0.01    145.62      0  02:00       0.000     0.000
  YS02001926              0.01    193.12      0  02:00       0.001     0.000
  YS02001929              0.01    196.05      0  02:00       0.000     0.000
  YSB1171                 0.15    456.33      0  02:03       0.154     0.000
  
  
  **********************
  Storage Volume Summary
  **********************
  
  --------------------------------------------------------------------------------------------------
                         Average     Avg  Evap Exfil       Maximum     Max    Time of Max    Maximum
                          Volume    Pcnt  Pcnt  Pcnt        Volume    Pcnt     Occurrence    Outflow
  Storage Unit           1000 m3    Full  Loss  Loss       1000 m3    Full    days hr:min        LPS
  --------------------------------------------------------------------------------------------------
  CC-storage               1.446      23     0     0         2.229      35       0  00:00    8830.00
  JK-storage               0.072      25     0     0         0.213      73       0  02:13   11500.00
  XR-storage               0.942      65     0     0         1.111      77       0  08:00     380.00
  
  
  ***********************
  Outfall Loading Summary
  ***********************
  
  -----------------------------------------------------------
                         Flow       Avg       Max       Total
                         Freq      Flow      Flow      Volume
  Outfall Node           Pcnt       LPS       LPS    10^6 ltr
  -----------------------------------------------------------
  CC-1                   6.08   3022.22   3415.00       3.707
  CC-2                   6.26   3033.79   3415.00       3.263
  JK-1                   4.88   1373.76   5000.00       1.075
  JK-2                   1.65   4505.88   5000.00       1.244
  WSC                   99.94    618.24   1487.68      12.926
  -----------------------------------------------------------
  System                23.76  12553.89   1487.68      22.215
  
  
  ********************
  Link Flow Summary
  ********************
  
  -----------------------------------------------------------------------------
                                 Maximum  Time of Max   Maximum    Max/    Max/
                                  |Flow|   Occurrence   |Veloc|    Full    Full
  Link                 Type          LPS  days hr:min     m/sec    Flow   Depth
  -----------------------------------------------------------------------------
  1                    CONDUIT   1487.68     0  02:06      3.69    0.52    0.51
  HS02004478WS02006287 CONDUIT   2262.21     0  02:02      2.62    0.63    1.00
  HS02004479HS02004480 CONDUIT    463.86     0  01:59      0.66    0.45    1.00
  HS02004480HS02004478 CONDUIT   2127.77     0  01:57      3.04    8.96    1.00
  HS02004770HS02004777 CONDUIT    753.57     0  01:56      1.08    1.38    1.00
  HS02004777HS02004785 CONDUIT    771.33     0  01:56      1.15    0.95    1.00
  HS02004785HS02004788 CONDUIT    643.09     0  01:56      1.36    4.85    1.00
  HS02004788HS02004792 CONDUIT    810.46     0  02:17      1.42    0.54    1.00
  HS02004792HS02004799 CONDUIT   1630.54     0  01:57      2.33    1.00    1.00
  HS02004799HS02004480 CONDUIT   1774.80     0  01:57      2.54    2.24    1.00
  HS02004802HS02004478 CONDUIT    848.12     0  02:03      1.21    0.75    1.00
  HS02004807HS02004802 CONDUIT    847.85     0  02:03      1.21    1.62    1.00
  HS02004817HS02004807 CONDUIT    562.14     0  02:03      0.80    0.33    1.00
  HS02004817HS02004824 CONDUIT    560.72     0  02:03      0.80    0.25    1.00
  HS02004824HS02004830 CONDUIT    654.01     0  01:57      0.93    0.86    1.00
  HS02004830HS02004837 CONDUIT    667.76     0  01:57      1.03    0.67    1.00
  HS02004837HS02004842 CONDUIT    839.75     0  01:57      1.20    0.50    1.00
  HS02004842HS02004848 CONDUIT    837.99     0  01:57      1.34    0.49    1.00
  HS02004848HS02004852 CONDUIT   1092.01     0  01:59      1.64    1.23    1.00
  HS02004852HS02004856 CONDUIT   1099.12     0  01:59      1.57    1.26    1.00
  HS02004856HS02004862 CONDUIT   1134.58     0  01:59      1.71    1.13    1.00
  HS02004862HS02004870 CONDUIT   1227.14     0  01:59      1.97    1.33    1.00
  HS02004870HS02004876 CONDUIT   1265.92     0  01:59      1.97    0.84    1.00
  HS02004876HS02004881 CONDUIT   1382.40     0  01:59      2.53   14.70    1.00
  HS02004881HS02006253 CONDUIT   1467.35     0  01:59      2.76    0.29    1.00
  HS02004901HS02004770 CONDUIT    265.73     0  02:12      0.38    1.00    1.00
  WS02001211WS02001212 CONDUIT    210.14     0  02:40      0.54    0.16    0.69
  WS02001212WS02001213 CONDUIT    214.36     0  02:40      1.04    0.33    0.56
  WS02001213WS02003059 CONDUIT    220.12     0  03:11      0.47    0.36    0.89
  WS02003059WS02003060 CONDUIT    227.98     0  03:10      0.66    0.15    0.81
  WS02003060WS02003069 CONDUIT   1485.20     0  02:05      2.08    0.58    0.60
  WS02003066WSF200     CONDUIT   1282.60     0  02:02      3.25    0.22    0.38
  WS02003067WS02003066 CONDUIT   1282.67     0  02:02      1.98    0.41    0.56
  WS02003069WS02003072 CONDUIT   1485.45     0  02:06      1.89    0.72    0.66
  WS02003072WS02003073 CONDUIT   1485.41     0  02:06      2.04    3.21    0.61
  WS02004138WS02004139 CONDUIT    190.76     0  00:29      2.15    0.04    0.41
  WS02004139WS02001211 CONDUIT    199.06     0  01:52      0.54    0.25    0.60
  WS02004401WS02004402 CONDUIT   1282.50     0  02:01      1.63    1.54    1.00
  WS02004402WS02004403 CONDUIT   1282.05     0  02:02      1.63    1.84    1.00
  WS02004403WS02004404 CONDUIT   1282.76     0  02:01      1.63    0.93    1.00
  WS02004404WS02004405 CONDUIT   1282.43     0  02:01      1.63   12.56    1.00
  WS02004405WS02004406 CONDUIT   1282.68     0  02:02      1.63    2.53    1.00
  WS02004406WS02004407 CONDUIT   1282.47     0  02:01      1.75    0.57    0.95
  WS02004407WS02004409 CONDUIT   1282.51     0  02:02      1.81    0.45    0.95
  WS02004409WS02004410 CONDUIT   1282.83     0  02:02      1.63    1.66    1.00
  WS02004410WS02004411 CONDUIT   1282.54     0  02:02      1.63    1.75    1.00
  WS02004411WS02004412 CONDUIT   1282.90     0  02:02      1.63    1.82    1.00
  WS02004412WS02004413 CONDUIT   1282.87     0  02:02      1.63    0.86    1.00
  WS02004413WS02003067 CONDUIT   1282.71     0  02:02      1.99    0.55    0.76
  WS02006109WS02006110 CONDUIT   1119.01     0  02:16      2.23    2.15    1.00
  WS02006110WS02006113 CONDUIT   1119.03     0  02:16      2.23    1.02    1.00
  WS02006111WS02006112 CONDUIT   1119.05     0  02:16      2.23    0.53    1.00
  WS02006112WS02006115 CONDUIT   1282.38     0  02:01      1.63    0.76    1.00
  WS02006113WS02006111 CONDUIT   1119.10     0  02:16      2.66    1.34    1.00
  WS02006115WS02006116 CONDUIT   1282.44     0  02:01      1.63    1.65    1.00
  WS02006116WS02004401 CONDUIT   1282.30     0  02:02      1.63    1.77    1.00
  WS02006228WS02006109 CONDUIT   1266.97     0  02:03      2.52    5.54    1.00
  WS02006229WS02006228 CONDUIT   1267.61     0  02:03      2.52    4.20    1.00
  WS02006230WS02006229 CONDUIT    995.20     0  02:03      2.59   22.15    1.00
  WS02006231WS02006230 CONDUIT    453.49     0  02:06      1.38    6.88    1.00
  WS02006232WS02006231 CONDUIT    453.52     0  02:08      1.19    0.95    1.00
  WS02006234WS02006232 CONDUIT    453.16     0  02:08      1.41    0.92    1.00
  WS02006235WS02006234 CONDUIT    487.01     0  00:06      1.47    5.14    1.00
  WS02006238WS02006235 CONDUIT    505.12     0  00:06      1.45    1.13    1.00
  WS02006239WS02006238 CONDUIT    507.27     0  00:06      1.34    1.62    1.00
  WS02006240WS02006239 CONDUIT    534.54     0  00:06      1.41    1.68    1.00
  WS02006242WS02006240 CONDUIT    594.65     0  00:05      1.63    2.36    1.00
  WS02006243WS02006242 CONDUIT    617.08     0  00:05      1.61    1.32    1.00
  WS02006245WS02006243 CONDUIT    667.43     0  00:05      1.77    1.97    1.00
  WS02006247WS02006245 CONDUIT    672.02     0  00:05      1.76    5.33    1.00
  WS02006248WS02006247 CONDUIT    671.19     0  00:05      1.74    1.46    1.00
  WS02006249WS02006248 CONDUIT    672.67     0  00:05      1.76    3.68    1.00
  WS02006251WS02006249 CONDUIT   1329.16     0  02:01      3.45    3.83    1.00
  WS02006252WS02006251 CONDUIT   1154.62     0  03:10     31.94    4.24    1.00
  WS02006253WS02006251 CONDUIT   1497.34     0  01:59      3.89    4.49    1.00
  WS02006256WS02006235 CONDUIT    288.93     0  00:00      4.23    3.06    1.00
  WS02006280WS02006229 CONDUIT   2262.56     0  02:02      4.45    0.48    1.00
  WS02006284WS02006280 CONDUIT   2261.64     0  02:02      3.02    0.95    1.00
  WS02006287WS02006284 CONDUIT   2261.51     0  02:02      2.88    1.05    1.00
  WSF200WS02003060     CONDUIT   1282.20     0  02:03      2.31    0.28    0.50
  YS02001580YS02001583 CONDUIT    112.32     0  01:56      0.69    0.44    1.00
  YS02001583YS02001586 CONDUIT    165.88     0  01:56      0.69    0.25    1.00
  YS02001586YS02001590 CONDUIT    318.47     0  02:06      1.27    0.56    1.00
  YS02001590YS02001593 CONDUIT    318.22     0  02:06      1.13    2.00    1.00
  YS02001593YS02001596 CONDUIT    318.02     0  02:16      1.75    0.50    1.00
  YS02001596YS02001600 CONDUIT    318.03     0  02:06      1.21    0.62    1.00
  YS02001600YS02001601 CONDUIT    318.01     0  02:06      1.12    0.55    1.00
  YS02001601YS02001602 CONDUIT    518.26     0  01:56      1.83    1.87    1.00
  YS02001602YS02001605 CONDUIT    517.94     0  01:56      1.83   10.96    1.00
  YS02001605YS02001607 CONDUIT    517.21     0  01:56      1.83    2.84    1.00
  YS02001607YS02001610 CONDUIT    518.76     0  01:55      0.66    0.49    1.00
  YS02001610YS02001613 CONDUIT    519.25     0  01:56      0.66    0.60    1.00
  YS02001613YS02001616 CONDUIT    523.36     0  01:55      0.67    0.45    1.00
  YS02001616YS02001619 CONDUIT    513.65     0  02:23      0.68    0.89    1.00
  YS02001619YS02001622 CONDUIT    941.85     0  02:16      1.20    1.39    1.00
  YS02001622YS02001625 CONDUIT    942.27     0  02:16      1.20    0.50    1.00
  YS02001625YS02001629 CONDUIT    942.81     0  02:16      1.20    0.45    1.00
  YS02001629YS02163301 CONDUIT    945.53     0  02:16      1.20    1.16    1.00
  YS02001633YS02163601 CONDUIT   1423.80     0  01:59      1.81    1.49    1.00
  YS02001641YS02001644 CONDUIT   1420.53     0  01:59      1.81    4.59    1.00
  YS02001644YS02001647 CONDUIT   1855.79     0  01:59      2.37    1.09    1.00
  YS02001647YS02001649 CONDUIT   1863.72     0  01:59      2.40    0.98    1.00
  YS02001649YS02001757 CONDUIT   2169.59     0  01:59      2.77    1.32    1.00
  YS02001652YS02001649 CONDUIT    641.46     0  02:03      0.82    0.32    1.00
  YS02001655YS02001652 CONDUIT    641.54     0  02:03      1.31    0.31    1.00
  YS02001658YS02001655 CONDUIT    641.85     0  02:03      1.93    0.27    1.00
  YS02001661YS02001658 CONDUIT    756.80     0  02:01      2.39    0.30    0.91
  YS02001664YS02001661 CONDUIT    574.51     0  02:01      2.40    0.18    0.58
  YS02001745YS02001748 CONDUIT    580.93     0  02:03      2.24    0.22    0.71
  YS02001748YS02001751 CONDUIT    478.76     0  02:04      1.75    0.24    1.00
  YS02001751YS02001754 CONDUIT    437.91     0  02:04      1.44    0.21    1.00
  YS02001754YS02001757 CONDUIT    438.99     0  02:04      0.56    0.18    1.00
  YS02001757CaochengTiaoxuchi CONDUIT   3383.13     0  02:03      5.33    1.46    0.82
  YS02001759YS02001757 CONDUIT   1236.97     0  02:00      1.57    0.88    1.00
  YS02001762YS02001759 CONDUIT    741.95     0  02:00      0.94    0.85    1.00
  YS02001765YS02001762 CONDUIT    733.04     0  02:00      0.93    0.69    1.00
  YS02001767YS02001765 CONDUIT    723.21     0  02:00      0.92    0.91    1.00
  YS02001770YS02001767 CONDUIT    714.63     0  02:00      0.91    2.83    1.00
  YS02001774YS02001770 CONDUIT    291.29     0  02:00      0.37    0.19    1.00
  YS02001779YS02001774 CONDUIT    298.78     0  02:00      0.39    0.15    1.00
  YS02001783YS02001784 CONDUIT   1154.30     0  02:01      2.30    1.59    1.00
  YS02001784YS02001785 CONDUIT   1155.22     0  02:01      2.30    2.69    1.00
  YS02001786YS02001788 CONDUIT   1155.77     0  02:01      2.47    2.23    0.89
  YS02001788YS02001790 CONDUIT   1163.14     0  02:00      2.70    0.86    0.84
  YS02001790YS02001791 CONDUIT   1282.83     0  02:03      3.44    1.40    0.70
  YS02001791YS02001793 CONDUIT   1248.77     0  02:00      6.78    0.54    0.44
  YS02001793JiankangQianchi CONDUIT   1311.41     0  02:05      2.62    0.10    0.65
  YS02001882YS02001884 CONDUIT     52.96     0  01:58      0.13    0.06    1.00
  YS02001884YS02001887 CONDUIT     75.74     0  01:58      0.10    0.10    1.00
  YS02001887YS02001890 CONDUIT    535.68     0  02:01      0.68    0.92    1.00
  YS02001890YS02001895 CONDUIT    508.15     0  02:02      0.65    0.24    1.00
  YS02001895YS02001898 CONDUIT    508.93     0  02:02      0.65    0.88    1.00
  YS02001898YS02001901 CONDUIT    508.19     0  02:02      0.65    0.33    1.00
  YS02001901YS02001904 CONDUIT    508.67     0  02:02      0.65    0.79    1.00
  YS02001904YS02001907 CONDUIT    508.44     0  02:02      0.65    0.18    1.00
  YS02001907YS02006553 CONDUIT    790.05     0  02:13      0.88    0.93    1.00
  YS02001910YS02001907 CONDUIT   1013.74     0  02:01      1.29    0.57    1.00
  YS02001915YS02001910 CONDUIT   1013.79     0  02:01      1.29    0.50    1.00
  YS02001918YS02001915 CONDUIT    455.44     0  02:01      0.58    0.25    1.00
  YS02001920YS02001918 CONDUIT    453.90     0  02:01      0.64    0.44    1.00
  YS02001923YS02001920 CONDUIT    449.80     0  02:01      0.71    0.20    1.00
  YS02001926YS02001923 CONDUIT    412.07     0  02:01      0.99    0.59    1.00
  YS02001929YS02001926 CONDUIT    410.05     0  02:01      1.17    0.19    1.00
  YS02006553YS02006556 CONDUIT    790.56     0  02:13      1.01    0.68    1.00
  YS02006556YS02006558 CONDUIT    792.38     0  02:13      1.01    0.63    1.00
  YS02006558YS02006561 CONDUIT   1164.85     0  01:59      4.12    2.57    1.00
  YS02006561YS02001783 CONDUIT   1153.65     0  02:01      2.30    0.60    1.00
  YS02163301YS02001633 CONDUIT    945.49     0  02:16      1.20    0.89    1.00
  YS02163601YS02164001 CONDUIT   1422.00     0  01:59      1.81    1.26    1.00
  YS02164001YS02001641 CONDUIT   1421.05     0  01:59      1.81    1.94    1.00
  YSB1154YSB6556       CONDUIT    298.24     0  02:02      0.77    0.54    1.00
  YSB1171HS02004479    CONDUIT    466.00     0  01:59      0.93    0.31    1.00
  YSB1174YSB1171       CONDUIT    252.75     0  02:01      0.66    0.39    1.00
  YSB6556YSB1171       CONDUIT    298.99     0  02:02      0.78    0.31    1.00
  CC-R1                PUMP      3415.00     0  01:20              5.00
  CC-R2                PUMP      3415.00     0  00:05              5.00
  CC-S1                PUMP      1000.00     0  00:05              5.00
  CC-S2                PUMP      1000.00     0  00:05              5.00
  JK-R1                PUMP      5000.00     0  01:45              5.00
  JK-R2                PUMP      5000.00     0  01:50              5.00
  JK-S                 PUMP      1500.00     0  00:35              5.00
  XR-1                 PUMP        95.00     0  00:00              1.00
  XR-2                 PUMP        95.00     0  00:00              1.00
  XR-3                 PUMP        95.00     0  00:00              1.00
  XR-4                 PUMP        95.00     0  00:00              1.00
  
  
  ***************************
  Flow Classification Summary
  ***************************
  
  -------------------------------------------------------------------------------------
                      Adjusted    ---------- Fraction of Time in Flow Class ---------- 
                       /Actual         Up    Down  Sub   Sup   Up    Down  Norm  Inlet 
  Conduit               Length    Dry  Dry   Dry   Crit  Crit  Crit  Crit  Ltd   Ctrl  
  -------------------------------------------------------------------------------------
  1                       1.00   0.00  0.00  0.00  0.00  1.00  0.00  0.00  0.33  0.00
  HS02004478WS02006287    1.00   0.11  0.00  0.00  0.57  0.32  0.00  0.00  0.60  0.00
  HS02004479HS02004480    1.00   0.04  0.00  0.00  0.96  0.00  0.00  0.00  0.11  0.00
  HS02004480HS02004478    1.00   0.09  0.00  0.00  0.51  0.00  0.00  0.40  0.00  0.00
  HS02004770HS02004777    1.00   0.00  0.09  0.00  0.91  0.00  0.00  0.00  0.03  0.00
  HS02004777HS02004785    1.00   0.00  0.00  0.00  1.00  0.00  0.00  0.00  0.12  0.00
  HS02004785HS02004788    1.00   0.00  0.00  0.00  1.00  0.00  0.00  0.00  0.00  0.00
  HS02004788HS02004792    1.00   0.00  0.00  0.00  0.99  0.01  0.00  0.00  0.91  0.00
  HS02004792HS02004799    1.00   0.00  0.00  0.00  0.99  0.01  0.00  0.00  0.87  0.00
  HS02004799HS02004480    1.00   0.00  0.04  0.00  0.89  0.00  0.06  0.00  0.00  0.00
  HS02004802HS02004478    1.00   0.09  0.00  0.00  0.90  0.00  0.00  0.00  0.02  0.00
  HS02004807HS02004802    1.00   0.09  0.00  0.00  0.90  0.00  0.00  0.01  0.00  0.00
  HS02004817HS02004807    1.00   0.00  0.09  0.00  0.91  0.00  0.00  0.00  0.01  0.00
  HS02004817HS02004824    1.00   0.00  0.00  0.00  1.00  0.00  0.00  0.00  0.82  0.00
  HS02004824HS02004830    1.00   0.00  0.00  0.00  1.00  0.00  0.00  0.00  0.01  0.00
  HS02004830HS02004837    1.00   0.00  0.00  0.00  1.00  0.00  0.00  0.00  0.89  0.00
  HS02004837HS02004842    1.00   0.00  0.00  0.00  0.99  0.01  0.00  0.00  0.11  0.00
  HS02004842HS02004848    1.00   0.00  0.09  0.00  0.91  0.00  0.00  0.00  0.58  0.00
  HS02004848HS02004852    1.00   0.09  0.00  0.00  0.91  0.00  0.00  0.00  0.71  0.00
  HS02004852HS02004856    1.00   0.09  0.01  0.00  0.90  0.00  0.00  0.00  0.68  0.00
  HS02004856HS02004862    1.00   0.00  0.11  0.00  0.89  0.00  0.00  0.00  0.75  0.00
  HS02004862HS02004870    1.00   0.00  0.00  0.00  1.00  0.00  0.00  0.00  0.03  0.00
  HS02004870HS02004876    1.00   0.01  0.00  0.00  0.99  0.00  0.00  0.00  0.91  0.00
  HS02004876HS02004881    1.00   0.01  0.00  0.00  0.74  0.25  0.00  0.00  0.00  0.00
  HS02004881HS02006253    1.00   0.00  0.01  0.00  0.33  0.04  0.00  0.62  0.11  0.00
  HS02004901HS02004770    1.00   0.09  0.00  0.00  0.91  0.00  0.00  0.00  0.00  0.00
  WS02001211WS02001212    1.00   0.00  0.03  0.00  0.97  0.00  0.00  0.00  0.00  0.00
  WS02001212WS02001213    1.00   0.03  0.00  0.00  0.43  0.00  0.53  0.00  0.00  0.00
  WS02001213WS02003059    1.00   0.00  0.00  0.00  0.99  0.00  0.00  0.00  0.00  0.00
  WS02003059WS02003060    1.00   0.00  0.00  0.00  1.00  0.00  0.00  0.00  0.03  0.00
  WS02003060WS02003069    1.00   0.00  0.00  0.00  0.99  0.01  0.00  0.00  0.57  0.00
  WS02003066WSF200        1.00   0.06  0.00  0.00  0.00  0.94  0.00  0.00  0.71  0.00
  WS02003067WS02003066    1.00   0.06  0.00  0.00  0.94  0.00  0.00  0.00  0.00  0.00
  WS02003069WS02003072    1.00   0.00  0.00  0.00  1.00  0.00  0.00  0.00  0.71  0.00
  WS02003072WS02003073    1.00   0.00  0.00  0.00  0.00  0.00  0.00  1.00  0.00  0.00
  WS02004138WS02004139    1.00   0.00  0.01  0.00  0.97  0.01  0.00  0.02  0.98  0.00
  WS02004139WS02001211    1.00   0.00  0.00  0.00  0.99  0.00  0.00  0.00  0.00  0.00
  WS02004401WS02004402    1.00   0.03  0.00  0.00  0.97  0.00  0.00  0.00  0.00  0.00
  WS02004402WS02004403    1.00   0.03  0.00  0.00  0.97  0.00  0.00  0.00  0.00  0.00
  WS02004403WS02004404    1.00   0.00  0.03  0.00  0.97  0.00  0.00  0.00  0.00  0.00
  WS02004404WS02004405    1.00   0.00  0.00  0.00  1.00  0.00  0.00  0.00  0.00  0.00
  WS02004405WS02004406    1.00   0.00  0.00  0.00  1.00  0.00  0.00  0.00  0.00  0.00
  WS02004406WS02004407    1.00   0.00  0.04  0.00  0.96  0.00  0.00  0.00  0.00  0.00
  WS02004407WS02004409    1.00   0.04  0.00  0.00  0.95  0.01  0.00  0.00  0.85  0.00
  WS02004409WS02004410    1.00   0.04  0.00  0.00  0.96  0.00  0.00  0.00  0.00  0.00
  WS02004410WS02004411    1.00   0.05  0.00  0.00  0.95  0.00  0.00  0.00  0.00  0.00
  WS02004411WS02004412    1.00   0.05  0.00  0.00  0.95  0.00  0.00  0.00  0.00  0.00
  WS02004412WS02004413    1.00   0.05  0.00  0.00  0.95  0.00  0.00  0.00  0.00  0.00
  WS02004413WS02003067    1.00   0.05  0.01  0.00  0.00  0.00  0.94  0.00  0.00  0.00
  WS02006109WS02006110    1.00   0.00  0.01  0.00  0.98  0.00  0.01  0.00  0.00  0.00
  WS02006110WS02006113    1.00   0.01  0.01  0.00  0.98  0.00  0.00  0.00  0.00  0.00
  WS02006111WS02006112    1.00   0.02  0.00  0.00  0.97  0.00  0.00  0.00  0.79  0.00
  WS02006112WS02006115    1.00   0.03  0.00  0.00  0.97  0.00  0.00  0.00  0.00  0.00
  WS02006113WS02006111    1.00   0.02  0.00  0.00  0.30  0.67  0.00  0.00  0.07  0.00
  WS02006115WS02006116    1.00   0.03  0.00  0.00  0.96  0.00  0.00  0.01  0.00  0.00
  WS02006116WS02004401    1.00   0.03  0.00  0.00  0.97  0.00  0.00  0.00  0.00  0.00
  WS02006228WS02006109    1.00   0.00  0.00  0.00  1.00  0.00  0.00  0.00  0.00  0.00
  WS02006229WS02006228    1.00   0.00  0.00  0.00  0.99  0.00  0.00  0.01  0.00  0.00
  WS02006230WS02006229    1.00   0.00  0.00  0.00  0.98  0.00  0.00  0.02  0.04  0.00
  WS02006231WS02006230    1.00   0.00  0.00  0.00  0.47  0.00  0.53  0.00  0.00  0.00
  WS02006232WS02006231    1.00   0.00  0.00  0.00  0.99  0.00  0.00  0.00  0.00  0.00
  WS02006234WS02006232    1.00   0.00  0.00  0.00  1.00  0.00  0.00  0.00  0.10  0.00
  WS02006235WS02006234    1.00   0.00  0.00  0.00  0.82  0.00  0.18  0.00  0.00  0.00
  WS02006238WS02006235    1.00   0.00  0.00  0.00  1.00  0.00  0.00  0.00  0.00  0.00
[...]
  WS02006256WS02006235    1.00   0.00  0.00  0.00  0.99  0.01  0.00  0.00  0.00  0.00
  WS02006280WS02006229    1.00   0.10  0.00  0.00  0.24  0.05  0.00  0.61  0.00  0.00
  WS02006284WS02006280    1.00   0.10  0.00  0.00  0.17  0.02  0.00  0.71  0.00  0.00
  WS02006287WS02006284    1.00   0.08  0.03  0.00  0.48  0.41  0.00  0.00  0.66  0.00
  WSF200WS02003060        1.00   0.00  0.06  0.00  0.53  0.40  0.00  0.00  0.69  0.00
  YS02001580YS02001583    1.00   0.24  0.45  0.00  0.31  0.00  0.00  0.00  0.69  0.00
  YS02001583YS02001586    1.00   0.32  0.29  0.00  0.38  0.00  0.00  0.00  0.69  0.00
  YS02001586YS02001590    1.00   0.09  0.00  0.00  0.59  0.03  0.00  0.29  0.35  0.00
  YS02001590YS02001593    1.00   0.09  0.00  0.00  0.17  0.00  0.74  0.00  0.00  0.00
  YS02001593YS02001596    1.00   0.10  0.00  0.00  0.20  0.02  0.00  0.69  0.02  0.00
  YS02001596YS02001600    1.00   0.10  0.00  0.00  0.34  0.03  0.00  0.54  0.06  0.00
  YS02001600YS02001601    1.00   0.09  0.00  0.00  0.90  0.00  0.00  0.00  0.62  0.00
  YS02001601YS02001602    1.00   0.09  0.00  0.00  0.90  0.00  0.00  0.00  0.00  0.00
  YS02001602YS02001605    1.00   0.10  0.00  0.00  0.90  0.00  0.00  0.00  0.00  0.00
  YS02001605YS02001607    1.00   0.10  0.00  0.00  0.90  0.00  0.00  0.00  0.00  0.00
  YS02001607YS02001610    1.00   0.09  0.00  0.00  0.90  0.00  0.00  0.00  0.01  0.00
  YS02001610YS02001613    1.00   0.09  0.00  0.00  0.91  0.00  0.00  0.00  0.00  0.00
  YS02001613YS02001616    1.00   0.09  0.00  0.00  0.91  0.00  0.00  0.00  0.00  0.00
  YS02001616YS02001619    1.00   0.09  0.00  0.00  0.91  0.00  0.00  0.00  0.00  0.00
  YS02001619YS02001622    1.00   0.09  0.00  0.00  0.91  0.00  0.00  0.00  0.35  0.00
  YS02001622YS02001625    1.00   0.09  0.00  0.00  0.91  0.00  0.00  0.00  0.04  0.00
  YS02001625YS02001629    1.00   0.09  0.03  0.00  0.24  0.00  0.64  0.00  0.00  0.00
  YS02001629YS02163301    1.00   0.10  0.01  0.00  0.89  0.00  0.00  0.00  0.00  0.00
  YS02001633YS02163601    1.00   0.00  0.01  0.00  0.99  0.00  0.00  0.00  0.15  0.00
  YS02001641YS02001644    1.00   0.00  0.01  0.00  0.99  0.00  0.00  0.00  0.00  0.00
  YS02001644YS02001647    1.00   0.00  0.11  0.00  0.89  0.00  0.00  0.00  0.00  0.00
  YS02001647YS02001649    1.00   0.00  0.11  0.00  0.47  0.42  0.00  0.00  0.59  0.00
  YS02001649YS02001757    1.00   0.00  0.00  0.00  0.50  0.50  0.00  0.00  0.61  0.00
  YS02001652YS02001649    1.00   0.00  0.00  0.00  0.97  0.03  0.00  0.00  0.76  0.00
  YS02001655YS02001652    1.00   0.00  0.00  0.00  0.27  0.05  0.00  0.68  0.10  0.00
  YS02001658YS02001655    1.00   0.00  0.10  0.00  0.47  0.43  0.00  0.00  0.76  0.00
  YS02001661YS02001658    1.00   0.10  0.00  0.00  0.33  0.57  0.00  0.00  0.73  0.00
  YS02001664YS02001661    1.00   0.09  0.00  0.00  0.66  0.25  0.00  0.00  0.86  0.00
  YS02001745YS02001748    1.00   0.00  0.00  0.00  0.03  0.01  0.00  0.96  0.02  0.00
  YS02001748YS02001751    1.00   0.00  0.00  0.00  0.59  0.41  0.00  0.00  0.83  0.00
  YS02001751YS02001754    1.00   0.00  0.00  0.00  0.16  0.02  0.00  0.82  0.04  0.00
  YS02001754YS02001757    1.00   0.00  0.00  0.00  1.00  0.00  0.00  0.00  0.88  0.00
  YS02001757CaochengTiaoxuchi    1.00   0.00  0.00  0.00  0.69  0.31  0.00  0.00  0.92  0.00
  YS02001759YS02001757    1.00   0.00  0.00  0.00  1.00  0.00  0.00  0.00  0.63  0.00
  YS02001762YS02001759    1.00   0.00  0.00  0.00  1.00  0.00  0.00  0.00  0.04  0.00
  YS02001765YS02001762    1.00   0.00  0.00  0.00  1.00  0.00  0.00  0.00  0.74  0.00
  YS02001767YS02001765    1.00   0.00  0.00  0.00  1.00  0.00  0.00  0.00  0.00  0.00
  YS02001770YS02001767    1.00   0.00  0.00  0.00  1.00  0.00  0.00  0.00  0.00  0.00
  YS02001774YS02001770    1.00   0.00  0.09  0.00  0.74  0.00  0.17  0.00  0.03  0.00
  YS02001779YS02001774    1.00   0.00  0.00  0.00  1.00  0.00  0.00  0.00  0.80  0.00
  YS02001783YS02001784    1.00   0.00  0.12  0.00  0.88  0.00  0.00  0.00  0.57  0.00
  YS02001784YS02001785    1.00   0.00  0.00  0.00  1.00  0.00  0.00  0.00  0.17  0.00
  YS02001786YS02001788    1.00   0.00  0.00  0.00  0.62  0.38  0.00  0.00  0.00  0.00
  YS02001788YS02001790    1.00   0.00  0.00  0.00  0.17  0.83  0.00  0.00  0.82  0.00
  YS02001790YS02001791    1.00   0.00  0.00  0.00  0.02  0.98  0.00  0.00  0.16  0.00
  YS02001791YS02001793    1.00   0.00  0.00  0.00  0.00  1.00  0.00  0.00  0.01  0.00
  YS02001793JiankangQianchi    1.00   0.00  0.00  0.00  0.97  0.02  0.00  0.00  0.98  0.00
  YS02001882YS02001884    1.00   0.10  0.00  0.00  0.89  0.00  0.00  0.00  0.00  0.00
  YS02001884YS02001887    1.00   0.06  0.03  0.00  0.91  0.00  0.00  0.00  0.00  0.00
  YS02001887YS02001890    1.00   0.00  0.00  0.00  0.96  0.00  0.04  0.00  0.00  0.00
  YS02001890YS02001895    1.00   0.00  0.11  0.00  0.89  0.00  0.00  0.00  0.00  0.00
  YS02001895YS02001898    1.00   0.11  0.00  0.00  0.87  0.00  0.02  0.00  0.00  0.00
  YS02001898YS02001901    1.00   0.11  0.00  0.00  0.89  0.00  0.00  0.00  0.01  0.00
  YS02001901YS02001904    1.00   0.11  0.00  0.00  0.89  0.00  0.00  0.00  0.00  0.00
  YS02001904YS02001907    1.00   0.00  0.11  0.00  0.89  0.00  0.00  0.00  0.00  0.00
  YS02001907YS02006553    1.00   0.00  0.03  0.00  0.97  0.00  0.00  0.00  0.00  0.00
  YS02001910YS02001907    1.00   0.00  0.00  0.00  0.96  0.00  0.00  0.03  0.12  0.00
  YS02001915YS02001910    1.00   0.00  0.00  0.00  0.97  0.03  0.00  0.00  0.16  0.00
  YS02001918YS02001915    1.00   0.00  0.00  0.00  0.97  0.03  0.00  0.00  0.78  0.00
  YS02001920YS02001918    1.00   0.00  0.00  0.00  1.00  0.00  0.00  0.00  0.00  0.00
  YS02001923YS02001920    1.00   0.00  0.00  0.00  1.00  0.00  0.00  0.00  0.94  0.00
  YS02001926YS02001923    1.00   0.00  0.07  0.00  0.06  0.00  0.87  0.00  0.00  0.00
  YS02001929YS02001926    1.00   0.00  0.09  0.00  0.91  0.00  0.00  0.00  0.84  0.00
  YS02006553YS02006556    1.00   0.01  0.00  0.00  0.99  0.00  0.00  0.00  0.03  0.00
  YS02006556YS02006558    1.00   0.00  0.00  0.00  1.00  0.00  0.00  0.00  0.00  0.00
  YS02006558YS02006561    1.00   0.12  0.00  0.00  0.06  0.82  0.00  0.00  0.18  0.00
  YS02006561YS02001783    1.00   0.12  0.00  0.00  0.11  0.77  0.00  0.00  0.71  0.00
  YS02163301YS02001633    1.00   0.00  0.10  0.00  0.90  0.00  0.00  0.00  0.00  0.00
  YS02163601YS02164001    1.00   0.00  0.07  0.00  0.93  0.00  0.00  0.00  0.00  0.00
  YS02164001YS02001641    1.00   0.01  0.06  0.00  0.93  0.00  0.00  0.00  0.05  0.00
  YSB1154YSB6556          1.00   0.09  0.00  0.00  0.91  0.00  0.00  0.00  0.02  0.00
  YSB1171HS02004479       1.00   0.05  0.00  0.00  0.94  0.00  0.00  0.01  0.10  0.00
  YSB1174YSB1171          1.00   0.05  0.02  0.00  0.92  0.00  0.00  0.00  0.00  0.00
  YSB6556YSB1171          1.00   0.05  0.04  0.00  0.91  0.00  0.00  0.00  0.00  0.00
  
  
  *************************
  Conduit Surcharge Summary
  *************************
  
  ----------------------------------------------------------------------------
                                                           Hours        Hours 
                         --------- Hours Full --------   Above Full   Capacity
  Conduit                Both Ends  Upstream  Dnstream   Normal Flow   Limited
  ----------------------------------------------------------------------------
  HS02004478WS02006287        0.37      0.37      0.55      0.01         0.01
  HS02004479HS02004480        0.56      0.56      0.58      0.01         0.01
  HS02004480HS02004478        0.48      0.55      0.48      1.64         0.48
  HS02004770HS02004777        0.46      0.46      0.46      0.10         0.07
  HS02004777HS02004785        0.41      0.41      0.46      0.01         0.01
  HS02004785HS02004788        0.40      0.41      0.40      1.40         0.39
  HS02004788HS02004792        0.40      0.40      0.52      0.01         0.01
  HS02004792HS02004799        0.52      0.52      0.64      0.01         0.01
  HS02004799HS02004480        0.55      0.55      0.64      0.75         0.01
  HS02004802HS02004478        0.49      0.49      0.56      0.01         0.01
  HS02004807HS02004802        0.53      0.53      0.56      0.14         0.14
  HS02004817HS02004807        0.53      0.53      1.13      0.01         0.01
  HS02004817HS02004824        0.39      0.39      1.13      0.01         0.01
  HS02004824HS02004830        0.36      0.36      0.39      0.01         0.01
  HS02004830HS02004837        0.32      0.32      0.36      0.01         0.01
  HS02004837HS02004842        0.32      0.32      0.46      0.01         0.01
  HS02004842HS02004848        0.28      0.28      0.46      0.01         0.01
  HS02004848HS02004852        0.28      0.28      0.29      0.03         0.01
  HS02004852HS02004856        0.28      0.29      0.31      0.02         0.01
  HS02004856HS02004862        0.27      0.27      0.30      0.02         0.01
  HS02004862HS02004870        0.29      0.30      0.30      0.04         0.05
  HS02004870HS02004876        0.30      0.30      0.43      0.01         0.01
  HS02004876HS02004881        0.41      0.43      0.41      1.36         0.40
  HS02004881HS02006253        0.41      0.41      1.10      0.01         0.01
  HS02004901HS02004770        0.46      0.46      0.47      0.01         0.01
  WS02003072WS02003073        0.01      0.01      0.01      1.95         0.01
  WS02004401WS02004402        1.38      1.38      1.39      1.24         1.21
  WS02004402WS02004403        1.39      1.39      1.40      1.37         1.36
  WS02004403WS02004404        1.40      1.40      1.49      0.01         0.01
  WS02004404WS02004405        1.47      1.49      1.47      2.54         1.47
  WS02004405WS02004406        1.46      1.47      1.46      1.60         1.46
  WS02004406WS02004407        0.01      0.01      1.46      0.01         0.01
  WS02004407WS02004409        0.01      0.01      0.87      0.01         0.01
  WS02004409WS02004410        0.83      0.87      0.83      1.30         0.83
  WS02004410WS02004411        0.77      0.83      0.77      1.34         0.77
  WS02004411WS02004412        0.67      0.77      0.67      1.37         0.67
  WS02004412WS02004413        0.67      0.67      1.16      0.01         0.01
  WS02004413WS02003067        0.01      0.01      1.16      0.01         0.01
  WS02006109WS02006110        1.56      1.56      1.75      1.56         0.01
  WS02006110WS02006113        1.10      1.10      1.74      0.19         0.01
  WS02006111WS02006112        1.09      1.09      1.86      0.01         0.01
  WS02006112WS02006115        1.31      1.31      1.62      0.01         0.01
  WS02006113WS02006111        1.10      1.10      1.10      1.22         1.10
  WS02006115WS02006116        1.32      1.32      1.32      1.30         1.29
  WS02006116WS02004401        1.37      1.37      1.38      1.34         1.34
  WS02006228WS02006109        1.73      1.75      1.73      2.03         1.73
  WS02006229WS02006228        1.72      1.73      1.72      1.86         1.72
  WS02006230WS02006229        1.77      1.77      1.77      2.47         0.76
  WS02006231WS02006230        1.44      1.45      1.47      1.98         0.94
  WS02006232WS02006231        1.45      1.45      1.55      0.01         0.12
  WS02006234WS02006232        1.45      1.45      1.55      0.01         0.01
  WS02006235WS02006234        1.41      1.42      1.43      1.73         0.89
  WS02006238WS02006235        1.45      1.45      1.47      0.01         0.27
  WS02006239WS02006238        1.41      1.41      1.45      0.76         0.02
  WS02006240WS02006239        1.36      1.37      1.38      0.76         0.02
  WS02006242WS02006240        1.36      1.36      1.42      0.82         0.75
  WS02006243WS02006242        1.33      1.33      1.39      0.01         0.01
  WS02006245WS02006243        1.30      1.31      1.32      0.07         0.02
  WS02006247WS02006245        1.30      1.31      1.30      1.44         0.26
  WS02006248WS02006247        1.29      1.29      1.31      0.02         0.01
  WS02006249WS02006248        1.27      1.27      1.29      0.30         0.01
  WS02006251WS02006249        1.27      1.29      1.29      0.97         0.85
  WS02006252WS02006251        1.20      3.69      1.25      0.46         0.01
  WS02006253WS02006251        1.26      1.29      1.29      0.73         0.08
  WS02006256WS02006235        2.05      2.08      5.80      0.14         0.01
  WS02006280WS02006229        0.68      0.68      0.82      0.01         0.01
  WS02006284WS02006280        0.58      0.58      0.66      0.01         0.01
  WS02006287WS02006284        0.47      0.47      0.59      0.18         0.17
  YS02001580YS02001583        0.43      0.43      0.46      0.01         0.01
  YS02001583YS02001586        0.44      0.44      0.53      0.01         0.01
  YS02001586YS02001590        0.54      0.54      0.60      0.01         0.01
  YS02001590YS02001593        0.60      0.60      0.62      0.65         0.01
  YS02001593YS02001596        0.61      0.61      0.71      0.01         0.01
  YS02001596YS02001600        0.76      0.76      0.86      0.01         0.01
  YS02001600YS02001601        0.93      0.93      1.29      0.01         0.01
  YS02001601YS02001602        1.14      1.14      1.35      0.89         0.01
  YS02001602YS02001605        1.07      1.07      1.14      2.08         0.01
  YS02001605YS02001607        1.02      1.07      1.02      1.24         1.02
  YS02001607YS02001610        0.53      0.53      0.56      0.01         0.01
  YS02001610YS02001613        0.52      0.52      0.56      0.01         0.01
  YS02001613YS02001616        0.48      0.48      0.52      0.01         0.01
  YS02001616YS02001619        0.47      0.47      0.48      0.01         0.01
  YS02001619YS02001622        0.46      0.47      0.46      0.64         0.44
  YS02001622YS02001625        0.46      0.46      0.66      0.01         0.01
  YS02001625YS02001629        0.37      0.37      0.66      0.01         0.01
  YS02001629YS02163301        0.63      0.63      0.64      0.33         0.32
  YS02001633YS02163601        0.66      0.66      0.69      0.46         0.47
  YS02001641YS02001644        0.48      0.54      0.48      1.39         0.48
  YS02001644YS02001647        0.25      0.25      0.48      0.05         0.01
  YS02001647YS02001649        0.25      0.25      0.28      0.01         0.01
  YS02001649YS02001757        0.25      0.28      0.25      0.37         0.25
  YS02001652YS02001649        0.19      0.19      0.28      0.01         0.01
  YS02001655YS02001652        0.10      0.10      0.17      0.01         0.01
  YS02001658YS02001655        0.03      0.03      0.10      0.01         0.01
  YS02001661YS02001658        0.01      0.01      0.03      0.01         0.01
  YS02001748YS02001751        0.01      0.01      0.05      0.01         0.01
  YS02001751YS02001754        0.05      0.05      0.11      0.01         0.01
  YS02001754YS02001757        0.12      0.12      0.25      0.01         0.01
  YS02001757CaochengTiaoxuchi        0.01      0.25      0.01      0.36         0.01
  YS02001759YS02001757        0.22      0.22      0.25      0.01         0.01
  YS02001762YS02001759        0.21      0.21      0.22      0.01         0.02
  YS02001765YS02001762        0.19      0.19      0.21      0.01         0.01
  YS02001767YS02001765        0.18      0.18      0.19      0.01         0.02
  YS02001770YS02001767        0.18      0.18      0.18      0.43         0.17
  YS02001774YS02001770        0.17      0.17      0.21      0.01         0.01
  YS02001779YS02001774        0.13      0.13      0.21      0.01         0.01
  YS02001783YS02001784        0.35      0.37      0.35      0.51         0.35
  YS02001784YS02001785        0.25      0.35      0.25      0.73         0.25
  YS02001786YS02001788        0.01      0.25      0.01      0.60         0.01
  YS02001790YS02001791        0.01      0.01      0.01      0.34         0.01
  YS02001793JiankangQianchi        0.01      0.01      3.86      0.01         0.01
  YS02001882YS02001884        0.32      0.32      0.33      0.01         0.01
  YS02001884YS02001887        0.35      0.35      0.36      0.01         0.01
  YS02001887YS02001890        0.38      0.38      0.39      0.01         0.01
  YS02001890YS02001895        0.31      0.31      0.40      0.01         0.01
  YS02001895YS02001898        0.31      0.31      0.31      0.01         0.01
  YS02001898YS02001901        0.31      0.31      0.35      0.01         0.01
  YS02001901YS02001904        0.34      0.34      0.35      0.01         0.01
  YS02001904YS02001907        0.34      0.34      0.59      0.01         0.01
  YS02001907YS02006553        0.74      0.74      0.79      0.01         0.01
  YS02001910YS02001907        0.40      0.40      0.57      0.01         0.01
  YS02001915YS02001910        0.32      0.32      0.40      0.01         0.01
  YS02001918YS02001915        0.24      0.24      0.32      0.01         0.01
  YS02001920YS02001918        0.24      0.24      0.25      0.01         0.01
  YS02001923YS02001920        0.20      0.20      0.25      0.01         0.01
  YS02001926YS02001923        0.01      0.01      0.01      0.01         0.01
  YS02001929YS02001926        0.01      0.01      0.01      0.01         0.01
  YS02006553YS02006556        0.48      0.48      0.58      0.01         0.01
  YS02006556YS02006558        0.53      0.53      0.60      0.01         0.01
  YS02006558YS02006561        0.28      0.47      0.28      0.68         0.28
  YS02006561YS02001783        0.20      0.20      0.37      0.01         0.01
  YS02163301YS02001633        0.64      0.64      0.68      0.01         0.01
  YS02163601YS02164001        0.56      0.56      0.69      0.28         0.01
  YS02164001YS02001641        0.54      0.56      0.54      0.71         0.51
  YSB1154YSB6556              0.62      0.62      0.77      0.01         0.01
  YSB1171HS02004479           0.51      0.51      0.77      0.01         0.01
  YSB1174YSB1171              0.68      0.68      1.04      0.01         0.01
  YSB6556YSB1171              0.62      0.62      1.23      0.01         0.01
  
  
  ***************
  Pumping Summary
  ***************
  
  ---------------------------------------------------------------------------------------------------------
                                                  Min       Avg       Max     Total     Power    % Time Off
                        Percent   Number of      Flow      Flow      Flow    Volume     Usage    Pump Curve
  Pump                 Utilized   Start-Ups       LPS       LPS       LPS  10^6 ltr     Kw-hr    Low   High
  ---------------------------------------------------------------------------------------------------------
  CC-R1                    4.60          22      0.00   3022.22   3415.00     3.708     61.19    0.0  100.0
  CC-R2                    4.15          25      0.00   3033.79   3415.00     3.265     53.92    0.0  100.0
  CC-S1                    6.27          22      0.00    922.83   1000.00     1.565     15.48    0.0    0.0
  CC-S2                    5.69          17      0.00    913.46   1000.00     1.399     13.87    0.0    0.0
  JK-R1                    2.61          12      0.00   1373.76   5000.00     1.076     10.77    0.0    0.0
  JK-R2                    0.99          12      0.00   4505.88   5000.00     1.241     10.11    0.0    0.0
  JK-S                     4.96          32      0.00    734.10   1500.00     1.103     18.36    0.0    0.0
  XR-1                    97.91           2      0.00     95.00     95.00     2.679      9.61    0.0    0.0
  XR-2                    93.94           2      0.00     95.00     95.00     2.570      8.77    0.0    0.0
  XR-3                     0.00           1      0.00     95.00     95.00     0.000      0.00    0.0    0.0
  XR-4                     0.00           1      0.00     95.00     95.00     0.000      0.00    0.0    0.0
  

  Analysis begun on:  Thu Jul 13 10:45:55 2023
  Analysis ended on:  Thu Jul 13 10:46:06 2023
  Total elapsed time: 00:00:11