
  OWA STORM WATER MANAGEMENT MODEL - VERSION v5.1.14 (OWA 2022-07-31)
  --------------------------------------------------------------

  WARNING 04: minimum elevation drop used for Conduit WS02004404WS02004405
  WARNING 03: negative offset ignored for Link YS02001904YS02001907
  
  *********************************************************
  NOTE: The summary statistics displayed in this report are
  based on results found at every computational time step,  
  not just on results from each reporting time step.
  *********************************************************
  
  ****************
  Analysis Options
  ****************
  Flow Units ............... LPS
  Process Models:
    Rainfall/Runoff ........ YES
    RDII ................... NO
    Snowmelt ............... NO
    Groundwater ............ NO
    Flow Routing ........... YES
    Ponding Allowed ........ NO
    Water Quality .......... NO
  Infiltration Method ...... HORTON
  Flow Routing Method ...... DYNWAVE
  Surcharge Method ......... EXTRAN
  Starting Date ............ 08/28/2015 08:00:00
  Ending Date .............. 08/28/2015 16:00:00
  Antecedent Dry Days ...... 8.0
  Report Time Step ......... 00:01:00
  Wet Time Step ............ 00:01:00
  Dry Time Step ............ 00:01:00
  Routing Time Step ........ 30.00 sec
  Variable Time Step ....... YES
  Maximum Trials ........... 8
  Number of Threads ........ 4
  Head Tolerance ........... 0.001500 m
  
  
  **************************        Volume         Depth
  Runoff Quantity Continuity     hectare-m            mm
  **************************     ---------       -------
  Total Precipitation ......         3.525       106.270
  Evaporation Loss .........         0.000         0.000
  Infiltration Loss ........         0.108         3.264
  Surface Runoff ...........         3.384       102.023
  Final Storage ............         0.033         0.999
  Continuity Error (%) .....        -0.016
  
  
  **************************        Volume        Volume
  Flow Routing Continuity        hectare-m      10^6 ltr
  **************************     ---------     ---------
  Dry Weather Inflow .......         0.025         0.251
  Wet Weather Inflow .......         3.384        33.841
  Groundwater Inflow .......         0.000         0.000
  RDII Inflow ..............         0.000         0.000
  External Inflow ..........         0.083         0.834
  External Outflow .........         2.446        24.459
  Flooding Loss ............         1.039        10.390
  Evaporation Loss .........         0.000         0.000
  Exfiltration Loss ........         0.000         0.000
  Initial Stored Volume ....         0.243         2.431
  Final Stored Volume ......         0.284         2.842
  Continuity Error (%) .....        -0.895
  
  
  *************************
  Highest Continuity Errors
  *************************
  Node YS02001583 (-5.90%)
  Node YS02001884 (4.38%)
  Node WS02006256 (-1.85%)
  Node YS02001774 (1.64%)
  
  
  ***************************
  Time-Step Critical Elements
  ***************************
  Link WS02006252WS02006251 (42.91%)
  Link YS02001791YS02001793 (13.62%)
  Link WS02006238WS02006235 (11.88%)
  Link WS02004404WS02004405 (8.14%)
  Link WS02003066WSF200 (5.47%)
  
  
  ********************************
  Highest Flow Instability Indexes
  ********************************
  Link WS02006113WS02006111 (48)
  Link WS02006238WS02006235 (36)
  Link WS02006252WS02006251 (31)
  Link WS02006235WS02006234 (29)
  Link WS02006239WS02006238 (27)
  
  
  *************************
  Routing Time Step Summary
  *************************
  Minimum Time Step           :     0.02 sec
  Average Time Step           :     1.87 sec
  Maximum Time Step           :    30.00 sec
  Percent in Steady State     :    -0.00
  Average Iterations per Step :     4.23
  Percent Not Converging      :    23.63
  
  
  ***************************
  Subcatchment Runoff Summary
  ***************************
  
  ------------------------------------------------------------------------------------------------------------------------------
                            Total      Total      Total      Total     Imperv       Perv      Total       Total     Peak  Runoff
                           Precip      Runon       Evap      Infil     Runoff     Runoff     Runoff      Runoff   Runoff   Coeff
  Subcatchment                 mm         mm         mm         mm         mm         mm         mm    10^6 ltr      LPS
  ------------------------------------------------------------------------------------------------------------------------------
  sub60                    106.27       0.00       0.00       1.95      92.32      10.80     103.12        1.36   272.41   0.970
  sub61                    106.27       0.00       0.00       2.84      87.08      15.23     102.31        1.88   376.96   0.963
  sub62                    106.27       0.00       0.00       1.30      96.48       7.20     103.69        2.84   564.46   0.976
  sub63                    106.27       0.00       0.00       5.26      74.49      25.56     100.05        2.27   440.86   0.941
  sub64                    106.27       0.00       0.00       2.66      89.12      13.29     102.41        2.46   479.47   0.964
  sub65                    106.27       0.00       0.00       2.30      91.20      11.52     102.72        2.83   547.07   0.967
  sub66                    106.27       0.00       0.00       6.45      74.37      24.37      98.73        4.60   776.30   0.929
  sub67                    106.27       0.00       0.00       1.24      96.54       7.27     103.80        1.93   389.28   0.977
  sub68                    106.27       0.00       0.00       2.35      90.21      12.53     102.74        2.83   564.56   0.967
  sub69                    106.27       0.00       0.00       2.15      90.22      13.79     104.01        3.85   736.18   0.979
  sub70                    106.27       0.00       0.00       7.03      69.96      29.11      99.07        2.86   455.12   0.932
  sub71                    106.27       0.00       0.00       1.34      96.44       7.16     103.60        2.71   526.91   0.975
  sub72                    106.27       0.00       0.00       1.19      97.42       6.25     103.67        1.43   268.16   0.975
  
  
  ******************
  Node Depth Summary
  ******************
  
  ---------------------------------------------------------------------------------
                                 Average  Maximum  Maximum  Time of Max    Reported
                                   Depth    Depth      HGL   Occurrence   Max Depth
  Node                 Type       Meters   Meters   Meters  days hr:min      Meters
  ---------------------------------------------------------------------------------
  WS02003060           JUNCTION     0.26     0.38     5.32     0  02:29        0.38
  WS02003066           JUNCTION     0.22     0.30     5.85     0  02:28        0.30
  WS02003067           JUNCTION     0.55     0.70     6.02     0  02:28        0.70
  WS02003069           JUNCTION     0.29     0.43     5.01     0  02:29        0.43
  WS02003072           JUNCTION     0.36     0.50     4.87     0  02:30        0.50
  WS02003073           JUNCTION     0.21     0.30     4.36     0  02:31        0.30
  WS02004401           JUNCTION     0.64     0.85     6.85     0  03:11        0.85
  WS02004402           JUNCTION     0.67     0.88     6.84     0  03:15        0.88
  WS02004403           JUNCTION     0.69     0.89     6.82     0  03:11        0.89
  WS02004404           JUNCTION     0.77     0.96     6.81     0  03:11        0.96
  WS02004405           JUNCTION     0.77     0.96     6.81     0  03:15        0.96
  WS02004406           JUNCTION     0.78     0.96     6.79     0  03:12        0.96
  WS02004407           JUNCTION     0.20     0.30     6.61     0  03:15        0.30
  WS02004409           JUNCTION     0.45     0.67     6.44     0  02:27        0.67
  WS02004410           JUNCTION     0.47     0.68     6.40     0  02:27        0.68
  WS02004411           JUNCTION     0.49     0.69     6.37     0  02:27        0.69
  WS02004412           JUNCTION     0.51     0.70     6.34     0  02:27        0.70
  WS02004413           JUNCTION     0.68     0.86     6.33     0  02:28        0.86
  WS02006109           JUNCTION     0.70     1.02     7.64     0  01:19        0.99
  WS02006110           JUNCTION     0.70     0.99     7.57     0  01:19        0.95
  WS02006111           JUNCTION     0.19     0.90     7.60     0  00:00        0.40
  WS02006112           JUNCTION     0.80     2.68     8.56     0  00:00        1.14
  WS02006113           JUNCTION     0.30     1.40     8.29     0  00:00        0.45
  WS02006115           JUNCTION     0.52     1.65     7.79     0  00:00        0.86
  WS02006116           JUNCTION     0.61     1.06     7.10     0  00:00        0.83
  WS02006228           JUNCTION     0.70     1.06     7.71     0  01:19        1.03
  WS02006229           JUNCTION     0.67     1.08     7.77     0  01:18        1.06
  WS02006230           JUNCTION     0.69     1.20     7.95     0  01:18        1.14
  WS02006231           JUNCTION     0.48     1.30     8.43     0  03:23        0.89
  WS02006232           JUNCTION     0.63     1.50     8.54     0  03:20        1.33
  WS02006234           JUNCTION     0.57     1.77     8.93     0  03:30        1.77
  WS02006235           JUNCTION     0.61     1.94     9.10     0  03:30        1.94
  WS02006238           JUNCTION     0.64     2.04     9.18     0  03:30        2.04
  WS02006239           JUNCTION     0.61     1.85     9.06     0  03:24        1.79
  WS02006240           JUNCTION     0.58     1.78     9.07     0  03:24        1.52
  WS02006242           JUNCTION     0.65     1.55     8.82     0  03:20        1.55
  WS02006243           JUNCTION     0.57     1.47     8.89     0  03:27        1.47
  WS02006245           JUNCTION     0.57     1.38     8.86     0  03:27        1.38
  WS02006247           JUNCTION     0.59     1.31     8.81     0  03:27        1.31
  WS02006248           JUNCTION     0.55     1.10     8.69     0  03:18        1.10
  WS02006249           JUNCTION     0.58     1.09     8.69     0  01:17        1.09
  WS02006251           JUNCTION     0.59     1.43     9.10     0  01:18        1.15
  WS02006252           JUNCTION     0.41     1.50     9.74     0  01:14        0.70
  WS02006256           JUNCTION     1.18     2.35     9.28     0  01:11        2.35
  WSF200               JUNCTION     0.19     0.29     5.52     0  02:28        0.29
  YS02001580           JUNCTION     0.20     1.05     9.59     0  01:12        0.80
  YS02001583           JUNCTION     0.24     1.14     9.64     0  01:12        0.83
  YS02001586           JUNCTION     0.34     1.13     9.30     0  01:12        1.13
  YS02001590           JUNCTION     0.46     1.40     9.26     0  01:09        1.40
  YS02001593           JUNCTION     0.39     1.46     9.32     0  01:09        1.33
  YS02001596           JUNCTION     0.51     1.80     9.22     0  01:08        1.69
  YS02001600           JUNCTION     0.59     1.87     9.00     0  01:12        1.87
  YS02001601           JUNCTION     0.78     2.06     8.90     0  01:10        2.06
  YS02001602           JUNCTION     0.68     1.87     8.77     0  01:12        1.87
  YS02001605           JUNCTION     0.63     1.78     8.68     0  01:12        1.78
  YS02001607           JUNCTION     0.61     1.68     8.53     0  01:12        1.66
  YS02001610           JUNCTION     0.66     1.68     8.48     0  01:12        1.68
  YS02001613           JUNCTION     0.62     1.70     8.54     0  01:12        1.66
  YS02001616           JUNCTION     0.54     1.61     8.52     0  01:12        1.61
  YS02001619           JUNCTION     0.52     1.61     8.54     0  01:12        1.58
  YS02001622           JUNCTION     0.51     1.62     8.52     0  01:12        1.59
  YS02001625           JUNCTION     0.78     1.78     8.38     0  01:12        1.78
  YS02001629           JUNCTION     0.66     1.85     8.40     0  01:12        1.85
  YS02001633           JUNCTION     0.74     2.07     8.53     0  01:17        2.07
  YS02001641           JUNCTION     0.72     1.97     8.41     0  01:22        1.97
  YS02001644           JUNCTION     0.72     1.92     8.35     0  01:22        1.92
  YS02001647           JUNCTION     0.51     1.85     8.46     0  01:22        1.85
  YS02001649           JUNCTION     0.58     2.05     8.44     0  01:22        2.05
  YS02001652           JUNCTION     0.46     2.16     8.76     0  01:22        2.16
  YS02001655           JUNCTION     0.38     1.94     8.79     0  01:22        1.94
  YS02001658           JUNCTION     0.28     1.39     8.54     0  01:19        1.22
  YS02001661           JUNCTION     0.26     0.81     8.21     0  02:14        0.81
  YS02001664           JUNCTION     0.07     0.25     8.18     0  01:27        0.25
  YS02001745           JUNCTION     0.15     0.61     8.13     0  02:14        0.61
  YS02001748           JUNCTION     0.28     1.05     8.13     0  02:14        1.05
  YS02001751           JUNCTION     0.34     1.25     8.12     0  02:14        1.24
  YS02001754           JUNCTION     0.43     1.51     8.12     0  02:14        1.51
  YS02001757           JUNCTION     0.63     1.96     8.22     0  01:22        1.96
  YS02001759           JUNCTION     0.56     1.91     8.28     0  01:22        1.91
  YS02001762           JUNCTION     0.54     1.91     8.31     0  01:22        1.90
  YS02001765           JUNCTION     0.52     1.89     8.34     0  01:22        1.88
  YS02001767           JUNCTION     0.51     1.90     8.39     0  01:22        1.90
  YS02001770           JUNCTION     0.52     1.95     8.44     0  01:22        1.95
  YS02001774           JUNCTION     0.58     2.05     8.47     0  01:22        2.05
  YS02001779           JUNCTION     0.41     1.68     8.37     0  01:15        1.68
  YS02001783           JUNCTION     0.35     1.25     7.39     0  01:15        1.21
  YS02001784           JUNCTION     0.34     1.13     7.19     0  01:15        1.12
  YS02001786           JUNCTION     0.28     0.89     6.92     0  01:15        0.86
  YS02001788           JUNCTION     0.20     0.62     6.59     0  01:17        0.62
  YS02001790           JUNCTION     0.24     0.72     6.37     0  01:26        0.72
  YS02001791           JUNCTION     0.15     0.43     5.90     0  01:23        0.43
  YS02001793           JUNCTION     0.08     0.31     5.14     0  01:19        0.31
  YS02001882           JUNCTION     0.44     1.78     8.50     0  02:02        1.78
  YS02001884           JUNCTION     0.53     1.84     8.46     0  02:02        1.84
  YS02001887           JUNCTION     0.61     1.88     8.42     0  02:02        1.88
  YS02001890           JUNCTION     0.64     1.81     8.32     0  01:14        1.81
  YS02001895           JUNCTION     0.41     1.60     8.34     0  02:02        1.60
  YS02001898           JUNCTION     0.42     1.65     8.38     0  02:02        1.65
  YS02001901           JUNCTION     0.53     1.71     8.32     0  02:02        1.71
  YS02001904           JUNCTION     0.51     1.66     8.29     0  02:02        1.66
  YS02001907           JUNCTION     0.84     1.96     8.25     0  01:15        1.96
  YS02001910           JUNCTION     0.64     2.02     8.52     0  01:13        1.80
  YS02001915           JUNCTION     0.44     2.00     8.72     0  01:13        1.62
  YS02001918           JUNCTION     0.28     1.81     8.88     0  01:16        1.29
  YS02001920           JUNCTION     0.35     2.10     9.11     0  01:16        1.38
  YS02001923           JUNCTION     0.21     2.02     9.28     0  01:16        1.23
  YS02001926           JUNCTION     0.22     1.90     9.35     0  01:16        1.05
  YS02001929           JUNCTION     0.13     1.73     9.43     0  01:16        0.82
  YS02006553           JUNCTION     0.84     1.97     8.26     0  01:22        1.97
  YS02006556           JUNCTION     0.81     1.92     8.23     0  01:15        1.92
  YS02006558           JUNCTION     0.85     1.96     8.23     0  01:20        1.95
  YS02006561           JUNCTION     0.22     0.91     7.57     0  01:15        0.87
  YS02163301           JUNCTION     0.68     1.95     8.47     0  01:17        1.95
  YS02163601           JUNCTION     0.78     2.08     8.48     0  01:17        2.08
  YS02164001           JUNCTION     0.71     2.02     8.48     0  01:17        2.02
  CC-1                 OUTFALL      0.00     0.00     0.00     0  00:00        0.00
  CC-2                 OUTFALL      0.00     0.00     0.00     0  00:00        0.00
  JK-1                 OUTFALL      0.00     0.00     0.00     0  00:00        0.00
  JK-2                 OUTFALL      0.00     0.00     0.00     0  00:00        0.00
  WSC                  OUTFALL      0.21     0.30     0.97     0  02:31        0.30
  CC-storage           STORAGE      1.20     2.10     7.60     0  02:59        2.10
  JK-storage           STORAGE      3.97     4.24     5.04     0  01:38        4.24
  
  
  *******************
  Node Inflow Summary
  *******************
  
  -------------------------------------------------------------------------------------------------
                                  Maximum  Maximum                  Lateral       Total        Flow
                                  Lateral    Total  Time of Max      Inflow      Inflow     Balance
                                   Inflow   Inflow   Occurrence      Volume      Volume       Error
  Node                 Type           LPS      LPS  days hr:min    10^6 ltr    10^6 ltr     Percent
  -------------------------------------------------------------------------------------------------
  WS02003060           JUNCTION     16.53   553.63     0  02:29       0.476        7.49       0.037
  WS02003066           JUNCTION      0.00   536.92     0  02:28           0        7.02       0.021
  WS02003067           JUNCTION      0.00   536.88     0  02:28           0        7.02       0.062
  WS02003069           JUNCTION      0.32   553.79     0  02:29     0.00922         7.5       0.061
  WS02003072           JUNCTION      0.00   553.60     0  02:30           0         7.5       0.105
  WS02003073           JUNCTION      1.82   555.34     0  02:30      0.0524        7.54       0.084
  WS02004401           JUNCTION      0.00  1677.78     0  00:00           0        7.14       0.167
  WS02004402           JUNCTION      0.00  1171.33     0  00:01           0        7.13       0.163
  WS02004403           JUNCTION      0.00   884.75     0  00:01           0        7.11       0.158
  WS02004404           JUNCTION      0.16   832.59     0  00:01     0.00467        7.11       0.126
  WS02004405           JUNCTION      0.04   776.49     0  00:01      0.0011         7.1       0.186
  WS02004406           JUNCTION      0.00   711.76     0  00:02           0        7.08       0.315
  WS02004407           JUNCTION      0.00   537.61     0  03:15           0        7.06       0.020
  WS02004409           JUNCTION      0.00   537.39     0  03:16           0        7.06       0.045
  WS02004410           JUNCTION      0.00   537.31     0  03:16           0        7.06       0.071
  WS02004411           JUNCTION      0.00   537.10     0  02:27           0        7.05       0.089
  WS02004412           JUNCTION      0.00   537.03     0  02:27           0        7.05       0.114
  WS02004413           JUNCTION      0.00   537.08     0  02:28           0        7.04       0.203
  WS02006109           JUNCTION      1.23  1308.01     0  00:00      0.0354        7.07       0.133
  WS02006110           JUNCTION      0.00   544.23     0  01:18           0        7.04      -0.505
  WS02006111           JUNCTION      0.00  1176.04     0  00:00           0        7.07      -0.544
  WS02006112           JUNCTION      0.00  2307.30     0  00:00           0        7.11      -0.002
  WS02006113           JUNCTION      0.00   559.42     0  01:19           0        7.03      -0.698
  WS02006115           JUNCTION      0.00   899.27     0  00:00           0        7.08      -0.448
  WS02006116           JUNCTION      0.00  1098.16     0  00:01           0        7.11      -0.356
  WS02006228           JUNCTION      0.00   543.14     0  01:19           0        7.01       0.066
  WS02006229           JUNCTION      0.00   543.01     0  01:19           0           7       0.117
  WS02006230           JUNCTION     10.28   572.84     0  03:29       0.296        6.99       0.017
  WS02006231           JUNCTION      0.00   554.64     0  03:30           0        6.68      -0.027
  WS02006232           JUNCTION      0.00   549.37     0  03:32           0        6.68       0.130
  WS02006234           JUNCTION      0.00   555.63     0  03:22           0        6.67      -0.132
  WS02006235           JUNCTION      0.00   561.36     0  03:22           0        6.74       0.016
  WS02006238           JUNCTION      0.00   434.40     0  04:09           0        4.99       0.019
  WS02006239           JUNCTION      0.00   431.87     0  04:09           0        4.94      -0.042
  WS02006240           JUNCTION      0.00   427.23     0  04:09           0        4.93       0.012
  WS02006242           JUNCTION      0.00   428.91     0  03:45           0        4.93       0.053
  WS02006243           JUNCTION      0.00   429.90     0  03:45           0        4.93      -0.019
  WS02006245           JUNCTION      0.00   430.30     0  03:45           0        4.94       0.111
  WS02006247           JUNCTION      0.00   431.10     0  03:45           0        4.94       0.035
  WS02006248           JUNCTION      0.00   431.97     0  03:45           0        4.94       0.015
  WS02006249           JUNCTION      0.00   431.46     0  03:45           0        5.47       0.097
  WS02006251           JUNCTION      0.08   409.13     0  01:18     0.00222        5.47       0.024
  WS02006252           JUNCTION      0.00   400.00     0  01:14           0        5.44      -0.435
  WS02006256           JUNCTION      0.00   300.00     0  01:11           0        2.68      -1.817
  WSF200               JUNCTION      0.00   536.95     0  02:28           0        7.02       0.009
  YS02001580           JUNCTION      0.00   142.40     0  01:12           0     0.00472       1.840
  YS02001583           JUNCTION      0.00   187.07     0  01:11           0      0.0158      -5.572
  YS02001586           JUNCTION    455.12   455.30     0  01:44        2.86        2.87       0.062
  YS02001590           JUNCTION      0.00   318.62     0  02:32           0        2.47      -0.019
  YS02001593           JUNCTION      0.00   318.31     0  01:22           0        2.47       0.001
  YS02001596           JUNCTION      0.00   318.00     0  01:17           0        2.47      -0.026
  YS02001600           JUNCTION      0.00   318.14     0  02:02           0        2.47       0.013
  YS02001601           JUNCTION    736.18  1053.63     0  01:27        3.85        6.32       0.005
  YS02001602           JUNCTION      0.00   588.86     0  01:11           0        3.44       0.013
  YS02001605           JUNCTION      0.00   588.85     0  01:11           0        3.04       0.026
  YS02001607           JUNCTION      0.00   588.82     0  01:11           0        3.04       0.054
  YS02001610           JUNCTION      0.00   575.20     0  01:11           0        3.04       0.082
  YS02001613           JUNCTION      0.00   556.17     0  01:12           0        2.01       0.079
  YS02001616           JUNCTION      0.00   519.61     0  01:12           0        2.02       0.009
  YS02001619           JUNCTION    776.30   959.59     0  01:12         4.6        6.62      -0.006
  YS02001622           JUNCTION      0.00   969.18     0  01:12           0        6.61      -0.004
  YS02001625           JUNCTION      0.00   937.35     0  01:12           0        6.61       0.193
  YS02001629           JUNCTION      0.00   937.31     0  01:12           0        3.47      -0.040
  YS02001633           JUNCTION    547.27  1331.01     0  01:14        2.83        6.31       0.052
  YS02001641           JUNCTION      0.00  1329.65     0  01:14           0        6.32       0.044
  YS02001644           JUNCTION    479.51  1714.59     0  01:14        2.46        8.77       0.037
  YS02001647           JUNCTION      0.00  1714.97     0  01:14           0        8.75       0.003
  YS02001649           JUNCTION      0.00  2075.03     0  01:14           0          11       0.001
  YS02001652           JUNCTION      0.00   473.73     0  01:19           0        2.28      -0.104
  YS02001655           JUNCTION      0.15   503.94     0  01:19     0.00443        2.28       0.114
  YS02001658           JUNCTION      0.00   722.44     0  01:19           0        2.27      -0.148
  YS02001661           JUNCTION      0.00   440.86     0  01:27           0        2.27       0.017
  YS02001664           JUNCTION    440.86   440.86     0  01:27        2.27        2.27      -0.013
  YS02001745           JUNCTION    272.42   272.42     0  01:25        1.36        1.36       0.106
  YS02001748           JUNCTION      0.04   406.01     0  01:25      0.0013        1.36      -0.235
  YS02001751           JUNCTION      0.01   391.22     0  01:18    0.000317        1.36       0.107
  YS02001754           JUNCTION      0.26   312.56     0  01:20     0.00749        1.37      -0.181
  YS02001757           JUNCTION      0.00  2876.61     0  01:18           0        17.1       0.023
  YS02001759           JUNCTION    377.00   980.57     0  01:22        1.88        4.75      -0.012
  YS02001762           JUNCTION      0.00   611.26     0  01:16           0        2.87      -0.001
  YS02001765           JUNCTION      0.00   602.10     0  01:16           0        2.87      -0.001
  YS02001767           JUNCTION      0.54   604.85     0  01:16      0.0154        2.87      -0.002
  YS02001770           JUNCTION    564.61   608.89     0  01:16        2.85         2.9      -0.019
  YS02001774           JUNCTION      0.00   224.84     0  01:15           0      0.0712       1.669
  YS02001779           JUNCTION      0.01   226.45     0  01:15    0.000144       0.021      -1.693
  YS02001783           JUNCTION      0.00  1147.67     0  01:20           0        7.91       0.001
  YS02001784           JUNCTION      1.06  1148.76     0  01:20      0.0305        7.94       0.006
  YS02001786           JUNCTION      0.06  1148.75     0  01:20     0.00162        7.94       0.008
  YS02001788           JUNCTION      0.07  1148.73     0  01:27     0.00204        7.94       0.003
  YS02001790           JUNCTION      0.15  1163.37     0  01:19     0.00446        7.94       0.056
  YS02001791           JUNCTION      0.00  1273.55     0  01:26           0        7.94      -0.053
  YS02001793           JUNCTION      0.00  1239.77     0  01:21           0        7.94      -0.011
  YS02001882           JUNCTION      0.00    83.50     0  01:12           0      0.0142       3.175
  YS02001884           JUNCTION      0.00   145.62     0  01:10           0      0.0508       4.575
  YS02001887           JUNCTION    389.73   390.78     0  01:25        1.94        1.98       0.204
  YS02001890           JUNCTION      0.00   390.73     0  01:25           0        1.94       0.252
  YS02001895           JUNCTION      0.00   390.59     0  01:24           0        1.93       0.139
  YS02001898           JUNCTION      0.00   393.59     0  01:14           0        1.93      -0.065
  YS02001901           JUNCTION      0.00   414.34     0  01:14           0        1.94       0.166
  YS02001904           JUNCTION      0.00   414.29     0  01:14           0        1.95       0.123
  YS02001907           JUNCTION      0.00  1273.54     0  01:17           0        6.18       0.278
  YS02001910           JUNCTION      0.00   890.19     0  01:17           0        4.22       0.169
  YS02001915           JUNCTION    526.93   889.42     0  01:17        2.71        4.26       0.027
  YS02001918           JUNCTION      0.00   430.17     0  01:17           0        1.57       0.003
  YS02001920           JUNCTION      2.87   429.90     0  01:17      0.0827        1.55       0.059
  YS02001923           JUNCTION      0.04   362.52     0  01:16     0.00109        1.45      -0.026
  YS02001926           JUNCTION      0.05   489.38     0  01:15      0.0015        1.44      -0.022
  YS02001929           JUNCTION    268.16   281.27     0  01:16        1.43        1.43      -0.011
  YS02006553           JUNCTION      0.00   785.00     0  02:21           0        5.13       0.229
  YS02006556           JUNCTION      0.00   786.79     0  02:21           0        5.15       0.147
  YS02006558           JUNCTION    565.44  1148.98     0  01:20        2.85        7.96       0.041
  YS02006561           JUNCTION      0.00  1148.13     0  01:20           0        7.91      -0.001
  YS02163301           JUNCTION      0.00   907.39     0  01:14           0        3.48       0.038
  YS02163601           JUNCTION      0.11  1331.35     0  01:14     0.00317         6.3       0.077
  YS02164001           JUNCTION      0.00  1330.92     0  01:14           0         6.3       0.034
  CC-1                 OUTFALL       0.00   683.00     0  01:18           0        6.22       0.000
  CC-2                 OUTFALL       0.00   683.00     0  01:24           0        5.48       0.000
  JK-1                 OUTFALL       0.00  1000.00     0  01:12           0        5.23       0.000
  JK-2                 OUTFALL       0.00     0.00     0  00:00           0           0       0.000 ltr
  WSC                  OUTFALL       0.00   555.29     0  02:31           0        7.53       0.000
  CC-storage           STORAGE       0.00  2881.14     0  01:18           0        19.4      -0.054
  JK-storage           STORAGE       0.00  1206.58     0  01:43           0         8.1       0.106
  
  
  **********************
  Node Surcharge Summary
  **********************
  
  Surcharging occurs when water rises above the top of the highest conduit.
  ---------------------------------------------------------------------
                                               Max. Height   Min. Depth
                                   Hours       Above Crown    Below Rim
  Node                 Type      Surcharged         Meters       Meters
  ---------------------------------------------------------------------
  WS02006109           JUNCTION        3.15          0.203        1.617
  WS02006110           JUNCTION        1.99          0.078        1.772
  WS02006111           JUNCTION        0.01          0.087        1.783
  WS02006112           JUNCTION        2.06          1.680        0.000
  WS02006113           JUNCTION        0.01          0.600        1.330
  WS02006115           JUNCTION        0.01          0.642        1.608
  WS02006116           JUNCTION        0.01          0.000        2.290
  WS02006228           JUNCTION        3.14          0.231        1.969
  WS02006229           JUNCTION        3.15          0.276        2.174
  WS02006230           JUNCTION        1.97          0.120        1.450
  WS02006231           JUNCTION        2.12          0.593        0.937
  WS02006232           JUNCTION        3.15          0.802        0.678
  WS02006234           JUNCTION        2.67          1.053        0.187
  WS02006235           JUNCTION        3.04          1.228        0.062
  WS02006238           JUNCTION        3.14          1.319        0.111
  WS02006239           JUNCTION        3.06          1.112        0.178
  WS02006240           JUNCTION        3.10          1.070        0.320
  WS02006242           JUNCTION        3.15          0.820        0.000
  WS02006243           JUNCTION        3.13          0.758        0.012
  WS02006245           JUNCTION        3.12          0.668        0.182
  WS02006247           JUNCTION        3.12          0.595        0.165
  WS02006248           JUNCTION        3.11          0.380        0.000
  WS02006249           JUNCTION        3.11          0.390        0.000
  WS02006251           JUNCTION        2.25          0.404        0.776
  WS02006252           JUNCTION        3.25          1.100        0.000
  WS02006256           JUNCTION        6.54          2.050        0.000
  YS02001580           JUNCTION        1.83          0.450        0.000
  YS02001583           JUNCTION        1.83          0.500        0.000
  YS02001586           JUNCTION        1.95          0.510        0.000
  YS02001590           JUNCTION        2.00          0.750        0.000
  YS02001593           JUNCTION        2.00          0.840        0.000
  YS02001596           JUNCTION        2.07          1.070        0.000
  YS02001600           JUNCTION        2.15          1.190        0.000
  YS02001601           JUNCTION        2.34          1.440        0.000
  YS02001602           JUNCTION        2.29          1.270        0.000
  YS02001605           JUNCTION        2.26          1.180        0.000
  YS02001607           JUNCTION        2.00          0.680        0.000
  YS02001610           JUNCTION        2.02          0.680        0.000
  YS02001613           JUNCTION        2.00          0.700        0.000
  YS02001616           JUNCTION        1.97          0.610        0.000
  YS02001619           JUNCTION        1.96          0.610        0.000
  YS02001622           JUNCTION        1.97          0.620        0.000
  YS02001625           JUNCTION        2.10          0.780        0.000
  YS02001629           JUNCTION        1.94          0.470        0.000
  YS02001633           JUNCTION        2.15          1.054        0.006
  YS02001641           JUNCTION        2.15          0.973        0.127
  YS02001644           JUNCTION        2.14          0.920        0.000
  YS02001647           JUNCTION        1.98          0.846        0.054
  YS02001649           JUNCTION        2.10          1.050        0.000
  YS02001652           JUNCTION        1.94          1.130        0.000
  YS02001655           JUNCTION        1.82          0.935        0.265
  YS02001658           JUNCTION        1.03          0.394        0.906
  YS02001751           JUNCTION        1.75          0.246        0.954
  YS02001754           JUNCTION        1.89          0.465        0.685
  YS02001757           JUNCTION        2.18          0.957        0.253
  YS02001759           JUNCTION        2.10          0.912        0.298
  YS02001762           JUNCTION        2.07          0.910        0.240
  YS02001765           JUNCTION        2.04          0.891        0.209
  YS02001767           JUNCTION        2.01          0.904        0.126
  YS02001770           JUNCTION        1.99          0.920        0.000
  YS02001774           JUNCTION        2.06          1.049        0.001
  YS02001779           JUNCTION        1.87          0.680        0.000
  YS02001783           JUNCTION        1.80          0.445        1.155
  YS02001784           JUNCTION        1.58          0.325        1.165
  YS02001786           JUNCTION        1.14          0.086        1.344
  YS02001882           JUNCTION        1.31          0.783        0.047
  YS02001884           JUNCTION        1.36          0.782        0.088
  YS02001887           JUNCTION        1.78          0.833        0.117
  YS02001890           JUNCTION        1.80          0.760        0.000
  YS02001895           JUNCTION        1.27          0.598        0.152
  YS02001898           JUNCTION        1.26          0.617        0.123
  YS02001901           JUNCTION        1.53          0.715        0.155
  YS02001904           JUNCTION        1.43          0.664        0.186
  YS02001907           JUNCTION        1.94          0.950        0.000
  YS02001910           JUNCTION        1.83          1.017        0.083
  YS02001915           JUNCTION        1.31          1.000        0.000
  YS02001918           JUNCTION        1.12          0.810        0.000
  YS02001920           JUNCTION        1.14          1.100        0.040
  YS02001923           JUNCTION        0.01          0.812        0.008
  YS02001926           JUNCTION        0.01          0.900        0.000
  YS02001929           JUNCTION        0.01          0.732        0.048
  YS02006553           JUNCTION        1.95          0.973        0.217
  YS02006556           JUNCTION        1.89          0.881        0.469
  YS02006558           JUNCTION        1.88          0.858        0.542
  YS02006561           JUNCTION        1.08          0.109        1.041
  YS02163301           JUNCTION        2.13          0.953        0.077
  YS02163601           JUNCTION        2.19          1.080        0.000
  YS02164001           JUNCTION        2.14          1.022        0.078
  
  
  *********************
  Node Flooding Summary
  *********************
  
  Flooding refers to all water that overflows a node, whether it ponds or not.
  --------------------------------------------------------------------------
                                                             Total   Maximum
                                 Maximum   Time of Max       Flood    Ponded
                        Hours       Rate    Occurrence      Volume     Depth
  Node                 Flooded       LPS   days hr:min    10^6 ltr    Meters
  --------------------------------------------------------------------------
  WS02006112              0.01   1547.89      0  00:00       0.047     0.000
  WS02006242              0.01     19.96      0  03:24       0.000     0.000
  WS02006248              0.05     28.58      0  03:30       0.002     0.000
  WS02006249              2.15    107.29      0  01:18       0.521     0.000
  WS02006252              0.01      0.91      0  01:14       0.000     0.000
  WS02006256              2.47    289.07      0  03:23       0.963     0.000
  YS02001580              0.01    131.59      0  01:12       0.000     0.000
  YS02001583              0.01    111.39      0  01:12       0.000     0.000
  YS02001586              1.32    137.93      0  01:44       0.393     0.000
  YS02001590              0.01     78.47      0  01:09       0.000     0.000
  YS02001593              0.01     42.46      0  01:09       0.000     0.000
  YS02001596              0.01     64.79      0  01:08       0.000     0.000
  YS02001600              0.01      0.70      0  01:12       0.000     0.000
  YS02001601              1.90    655.83      0  01:27       2.876     0.000
  YS02001602              1.86     62.13      0  01:38       0.404     0.000
  YS02001605              0.01      3.55      0  01:12       0.000     0.000
  YS02001607              0.01     85.59      0  01:12       0.000     0.000
  YS02001610              1.79    292.03      0  01:30       1.025     0.000
  YS02001613              0.01     43.72      0  01:12       0.000     0.000
  YS02001616              0.01    177.80      0  01:12       0.000     0.000
  YS02001619              0.01    191.64      0  01:12       0.000     0.000
  YS02001622              0.01    223.43      0  01:12       0.000     0.000
  YS02001625              1.80    759.08      0  01:28       3.129     0.000
  YS02001629              0.02    283.74      0  01:12       0.002     0.000
  YS02001644              0.01     44.83      0  01:22       0.000     0.000
  YS02001649              0.01     10.12      0  01:22       0.000     0.000
  YS02001652              0.01      7.00      0  01:22       0.000     0.000
  YS02001770              0.01      6.33      0  01:22       0.000     0.000
  YS02001779              0.01    148.72      0  01:15       0.001     0.000
  YS02001890              0.01     22.82      0  02:02       0.000     0.000
  YS02001907              1.03    651.59      0  01:17       1.042     0.000
  YS02001915              0.01     98.92      0  01:13       0.000     0.000
  YS02001918              0.01     62.32      0  01:16       0.000     0.000
  YS02001926              0.01     23.16      0  01:16       0.000     0.000
  YS02163601              0.01      3.08      0  01:17       0.000     0.000
  
  
  **********************
  Storage Volume Summary
  **********************
  
  --------------------------------------------------------------------------------------------------
                         Average     Avg  Evap Exfil       Maximum     Max    Time of Max    Maximum
                          Volume    Pcnt  Pcnt  Pcnt        Volume    Pcnt     Occurrence    Outflow
  Storage Unit           1000 m3    Full  Loss  Loss       1000 m3    Full    days hr:min        LPS
  --------------------------------------------------------------------------------------------------
  CC-storage               3.338      52     0     0         5.846      91       0  02:59    1766.00
  JK-storage               0.199      68     0     0         0.213      73       0  01:38    1300.00
  
  
  ***********************
  Outfall Loading Summary
  ***********************
  
  -----------------------------------------------------------
                         Flow       Avg       Max       Total
                         Freq      Flow      Flow      Volume
  Outfall Node           Pcnt       LPS       LPS    10^6 ltr
  -----------------------------------------------------------
  CC-1                  32.07    683.00    683.00       6.216
  CC-2                  29.04    683.00    683.00       5.480
  JK-1                  19.62   1000.00   1000.00       5.229
  JK-2                   0.00      0.00      0.00       0.000
  WSC                   99.99    312.14    555.29       7.534
  -----------------------------------------------------------
  System                36.15   2678.14    555.29      24.459
  
  
  ********************
  Link Flow Summary
  ********************
  
  -----------------------------------------------------------------------------
                                 Maximum  Time of Max   Maximum    Max/    Max/
                                  |Flow|   Occurrence   |Veloc|    Full    Full
  Link                 Type          LPS  days hr:min     m/sec    Flow   Depth
  -----------------------------------------------------------------------------
  1                    CONDUIT    555.29     0  02:31      2.83    0.19    0.30
  WS02003060WS02003069 CONDUIT    553.47     0  02:29      1.64    0.22    0.34
  WS02003066WSF200     CONDUIT    536.95     0  02:28      2.85    0.09    0.22
  WS02003067WS02003066 CONDUIT    536.92     0  02:28      1.21    0.17    0.42
  WS02003069WS02003072 CONDUIT    553.60     0  02:30      1.37    0.27    0.39
  WS02003072WS02003073 CONDUIT    553.52     0  02:30      1.44    1.20    0.37
  WS02004401WS02004402 CONDUIT   1171.33     0  00:01      2.51    1.41    0.86
  WS02004402WS02004403 CONDUIT    884.75     0  00:01      2.16    1.27    0.88
  WS02004403WS02004404 CONDUIT    832.43     0  00:01      1.96    0.60    0.93
  WS02004404WS02004405 CONDUIT    776.45     0  00:01      2.26    7.61    0.96
  WS02004405WS02004406 CONDUIT    711.76     0  00:02      2.15    1.40    0.96
  WS02004406WS02004407 CONDUIT    537.61     0  03:15      1.04    0.24    0.63
  WS02004407WS02004409 CONDUIT    537.39     0  03:16      1.95    0.19    0.48
  WS02004409WS02004410 CONDUIT    537.31     0  03:16      1.31    0.69    0.67
  WS02004410WS02004411 CONDUIT    537.10     0  02:27      1.19    0.73    0.69
  WS02004411WS02004412 CONDUIT    537.03     0  02:27      1.07    0.76    0.69
  WS02004412WS02004413 CONDUIT    537.08     0  02:28      1.10    0.36    0.78
  WS02004413WS02003067 CONDUIT    536.88     0  02:28      1.11    0.23    0.59
  WS02006109WS02006110 CONDUIT   1306.78     0  00:00      3.14    2.51    1.00
  WS02006110WS02006113 CONDUIT    559.42     0  01:19      1.35    0.51    1.00
  WS02006111WS02006112 CONDUIT   2307.30     0  00:00      9.18    1.10    0.91
  WS02006112WS02006115 CONDUIT    899.27     0  00:00      1.16    0.53    1.00
  WS02006113WS02006111 CONDUIT   1176.04     0  00:00      2.46    1.41    1.00
  WS02006115WS02006116 CONDUIT   1098.16     0  00:01      1.72    1.41    1.00
  WS02006116WS02004401 CONDUIT   1677.78     0  00:00      2.92    2.31    0.84
  WS02006228WS02006109 CONDUIT    543.11     0  01:19      1.40    2.37    1.00
  WS02006229WS02006228 CONDUIT    543.14     0  01:19      1.24    1.80    1.00
  WS02006230WS02006229 CONDUIT    543.01     0  01:19      1.41   12.08    1.00
  WS02006231WS02006230 CONDUIT    562.56     0  03:29      1.51    8.53    1.00
  WS02006232WS02006231 CONDUIT    554.64     0  03:30      1.44    1.16    1.00
  WS02006234WS02006232 CONDUIT    549.37     0  03:32      1.43    1.11    1.00
  WS02006235WS02006234 CONDUIT    555.63     0  03:22      1.45    5.86    1.00
  WS02006238WS02006235 CONDUIT    454.99     0  03:38      1.18    1.02    1.00
  WS02006239WS02006238 CONDUIT    434.40     0  04:09      1.13    1.39    1.00
  WS02006240WS02006239 CONDUIT    431.87     0  04:09      1.12    1.36    1.00
  WS02006242WS02006240 CONDUIT    427.23     0  04:09      1.11    1.70    1.00
  WS02006243WS02006242 CONDUIT    428.91     0  03:45      1.13    0.92    1.00
  WS02006245WS02006243 CONDUIT    429.90     0  03:45      1.14    1.27    1.00
  WS02006247WS02006245 CONDUIT    430.30     0  03:45      1.18    3.41    1.00
  WS02006248WS02006247 CONDUIT    431.10     0  03:45      1.26    0.94    1.00
  WS02006249WS02006248 CONDUIT    431.97     0  03:45      1.31    2.37    1.00
  WS02006251WS02006249 CONDUIT    431.46     0  03:45      1.27    1.24    1.00
  WS02006252WS02006251 CONDUIT    409.06     0  01:18     19.72    1.50    1.00
  WS02006256WS02006235 CONDUIT    261.20     0  05:38      3.98    2.76    1.00
  WSF200WS02003060     CONDUIT    537.10     0  02:29      2.06    0.12    0.28
  YS02001580YS02001583 CONDUIT    142.40     0  01:12      0.74    0.55    1.00
  YS02001583YS02001586 CONDUIT    157.10     0  01:11      0.75    0.24    1.00
  YS02001586YS02001590 CONDUIT    318.62     0  02:32      1.30    0.56    1.00
  YS02001590YS02001593 CONDUIT    318.31     0  01:22      1.13    2.00    1.00
  YS02001593YS02001596 CONDUIT    318.00     0  01:17      1.66    0.50    1.00
  YS02001596YS02001600 CONDUIT    318.14     0  02:02      1.22    0.62    1.00
  YS02001600YS02001601 CONDUIT    318.33     0  01:39      1.13    0.55    1.00
  YS02001601YS02001602 CONDUIT    588.86     0  01:11      2.08    2.13    1.00
  YS02001602YS02001605 CONDUIT    588.85     0  01:11      2.08   12.46    1.00
  YS02001605YS02001607 CONDUIT    588.82     0  01:11      2.08    3.23    1.00
  YS02001607YS02001610 CONDUIT    575.20     0  01:11      0.84    0.55    1.00
  YS02001610YS02001613 CONDUIT    556.17     0  01:12      0.78    0.64    1.00
  YS02001613YS02001616 CONDUIT    519.61     0  01:12      0.83    0.45    1.00
  YS02001616YS02001619 CONDUIT    530.45     0  01:12      0.88    0.92    1.00
  YS02001619YS02001622 CONDUIT    969.18     0  01:12      1.82    1.43    1.00
  YS02001622YS02001625 CONDUIT    937.35     0  01:12      1.19    0.50    1.00
  YS02001625YS02001629 CONDUIT    937.31     0  01:12      1.20    0.45    1.00
  YS02001629YS02163301 CONDUIT    907.39     0  01:14      1.16    1.12    1.00
  YS02001633YS02163601 CONDUIT   1331.24     0  01:14      1.69    1.40    1.00
  YS02001641YS02001644 CONDUIT   1330.49     0  01:14      1.69    4.30    1.00
  YS02001644YS02001647 CONDUIT   1714.97     0  01:14      2.24    1.01    1.00
  YS02001647YS02001649 CONDUIT   1716.70     0  01:15      2.30    0.91    1.00
  YS02001649YS02001757 CONDUIT   2006.45     0  01:14      2.57    1.22    1.00
  YS02001652YS02001649 CONDUIT    467.78     0  01:19      1.36    0.23    1.00
  YS02001655YS02001652 CONDUIT    473.73     0  01:19      1.85    0.23    1.00
  YS02001658YS02001655 CONDUIT    503.79     0  01:19      2.02    0.21    1.00
  YS02001661YS02001658 CONDUIT    722.44     0  01:19      2.25    0.28    0.87
  YS02001664YS02001661 CONDUIT    440.86     0  01:27      2.11    0.14    0.52
  YS02001745YS02001748 CONDUIT    405.96     0  01:25      2.10    0.16    0.79
  YS02001748YS02001751 CONDUIT    391.21     0  01:18      1.74    0.20    1.00
  YS02001751YS02001754 CONDUIT    312.30     0  01:20      1.71    0.15    1.00
  YS02001754YS02001757 CONDUIT    311.15     0  01:20      1.08    0.13    1.00
  YS02001757CaochengTiaoxuchi CONDUIT   2881.14     0  01:18      3.67    1.25    1.00
  YS02001759YS02001757 CONDUIT    983.06     0  01:22      1.42    0.70    1.00
  YS02001762YS02001759 CONDUIT    618.58     0  01:16      0.79    0.71    1.00
  YS02001765YS02001762 CONDUIT    611.26     0  01:16      0.89    0.57    1.00
  YS02001767YS02001765 CONDUIT    602.10     0  01:16      1.00    0.76    1.00
  YS02001770YS02001767 CONDUIT    604.31     0  01:16      0.97    2.39    1.00
  YS02001774YS02001770 CONDUIT    224.84     0  01:15      0.73    0.14    1.00
  YS02001779YS02001774 CONDUIT    226.45     0  01:15      0.29    0.11    1.00
  YS02001783YS02001784 CONDUIT   1147.70     0  01:20      2.28    1.58    1.00
  YS02001784YS02001785 CONDUIT   1148.69     0  01:20      2.29    2.67    1.00
  YS02001786YS02001788 CONDUIT   1148.66     0  01:27      2.46    2.21    0.89
  YS02001788YS02001790 CONDUIT   1163.21     0  01:19      2.71    0.86    0.83
  YS02001790YS02001791 CONDUIT   1273.55     0  01:26      3.43    1.39    0.70
  YS02001791YS02001793 CONDUIT   1239.77     0  01:21      6.21    0.53    0.45
  YS02001793JiankangQianchi CONDUIT   1206.58     0  01:43      2.23    0.10    0.65
  YS02001882YS02001884 CONDUIT     83.50     0  01:12      0.42    0.10    1.00
  YS02001884YS02001887 CONDUIT    145.62     0  01:10      0.37    0.19    1.00
  YS02001887YS02001890 CONDUIT    390.73     0  01:25      0.50    0.67    1.00
  YS02001890YS02001895 CONDUIT    390.59     0  01:24      0.50    0.18    1.00
  YS02001895YS02001898 CONDUIT    393.59     0  01:14      0.71    0.68    1.00
  YS02001898YS02001901 CONDUIT    414.34     0  01:14      0.59    0.27    1.00
  YS02001901YS02001904 CONDUIT    414.29     0  01:14      0.65    0.64    1.00
  YS02001904YS02001907 CONDUIT    417.42     0  01:14      0.53    0.15    1.00
  YS02001907YS02006553 CONDUIT    785.00     0  02:21      0.87    0.92    1.00
  YS02001910YS02001907 CONDUIT    889.64     0  01:17      1.13    0.50    1.00
  YS02001915YS02001910 CONDUIT    890.19     0  01:17      1.15    0.44    1.00
  YS02001918YS02001915 CONDUIT    431.07     0  01:17      0.55    0.24    1.00
  YS02001920YS02001918 CONDUIT    430.17     0  01:17      0.72    0.42    1.00
  YS02001923YS02001920 CONDUIT    427.03     0  01:17      0.83    0.19    1.00
  YS02001926YS02001923 CONDUIT    362.48     0  01:16      0.94    0.52    1.00
  YS02001929YS02001926 CONDUIT    362.37     0  01:16      1.07    0.17    1.00
  YS02006553YS02006556 CONDUIT    786.79     0  02:21      1.00    0.67    1.00
  YS02006556YS02006558 CONDUIT    786.24     0  02:21      1.00    0.62    1.00
  YS02006558YS02006561 CONDUIT   1148.13     0  01:20      4.06    2.54    1.00
  YS02006561YS02001783 CONDUIT   1147.67     0  01:20      2.29    0.59    1.00
  YS02163301YS02001633 CONDUIT    907.72     0  01:14      1.16    0.85    1.00
  YS02163601YS02164001 CONDUIT   1330.92     0  01:14      1.69    1.18    1.00
  YS02164001YS02001641 CONDUIT   1329.65     0  01:14      1.69    1.82    1.00
  CC-R1                PUMP       683.00     0  01:18              1.00
  CC-R2                PUMP       683.00     0  01:24              1.00
  CC-S1                PUMP       200.00     0  00:34              1.00
  CC-S2                PUMP       200.00     0  01:14              1.00
  JK-R1                PUMP      1000.00     0  01:12              1.00
  JK-R2                PUMP         0.00     0  00:00              0.00
  JK-S                 PUMP       300.00     0  01:11              1.00
  
  
  ***************************
  Flow Classification Summary
  ***************************
  
  -------------------------------------------------------------------------------------
                      Adjusted    ---------- Fraction of Time in Flow Class ---------- 
                       /Actual         Up    Down  Sub   Sup   Up    Down  Norm  Inlet 
  Conduit               Length    Dry  Dry   Dry   Crit  Crit  Crit  Crit  Ltd   Ctrl  
  -------------------------------------------------------------------------------------
  1                       1.00   0.00  0.00  0.00  0.00  1.00  0.00  0.00  0.35  0.00
  WS02003060WS02003069    1.00   0.00  0.00  0.00  0.99  0.01  0.00  0.00  0.58  0.00
  WS02003066WSF200        1.00   0.01  0.00  0.00  0.00  0.99  0.00  0.00  0.72  0.00
  WS02003067WS02003066    1.00   0.01  0.00  0.00  0.99  0.00  0.00  0.00  0.00  0.00
  WS02003069WS02003072    1.00   0.00  0.00  0.00  1.00  0.00  0.00  0.00  0.59  0.00
  WS02003072WS02003073    1.00   0.00  0.00  0.00  0.00  0.00  0.00  1.00  0.00  0.00
  WS02004401WS02004402    1.00   0.00  0.00  0.00  1.00  0.00  0.00  0.00  0.00  0.00
  WS02004402WS02004403    1.00   0.00  0.00  0.00  1.00  0.00  0.00  0.00  0.00  0.00
  WS02004403WS02004404    1.00   0.00  0.00  0.00  1.00  0.00  0.00  0.00  0.00  0.00
  WS02004404WS02004405    1.00   0.00  0.00  0.00  1.00  0.00  0.00  0.00  0.00  0.00
  WS02004405WS02004406    1.00   0.00  0.00  0.00  1.00  0.00  0.00  0.00  0.00  0.00
  WS02004406WS02004407    1.00   0.00  0.00  0.00  1.00  0.00  0.00  0.00  0.00  0.00
  WS02004407WS02004409    1.00   0.00  0.00  0.00  0.99  0.01  0.00  0.00  0.99  0.00
  WS02004409WS02004410    1.00   0.00  0.00  0.00  1.00  0.00  0.00  0.00  0.00  0.00
  WS02004410WS02004411    1.00   0.00  0.00  0.00  1.00  0.00  0.00  0.00  0.00  0.00
  WS02004411WS02004412    1.00   0.00  0.00  0.00  1.00  0.00  0.00  0.00  0.00  0.00
  WS02004412WS02004413    1.00   0.00  0.00  0.00  1.00  0.00  0.00  0.00  0.00  0.00
  WS02004413WS02003067    1.00   0.00  0.00  0.00  0.00  0.00  0.99  0.00  0.00  0.00
  WS02006109WS02006110    1.00   0.00  0.00  0.00  1.00  0.00  0.00  0.00  0.00  0.00
  WS02006110WS02006113    1.00   0.00  0.00  0.00  1.00  0.00  0.00  0.00  0.00  0.00
  WS02006111WS02006112    1.00   0.00  0.00  0.00  1.00  0.00  0.00  0.00  1.00  0.00
  WS02006112WS02006115    1.00   0.00  0.00  0.00  1.00  0.00  0.00  0.00  0.00  0.00
  WS02006113WS02006111    1.00   0.00  0.00  0.00  0.00  1.00  0.00  0.00  0.15  0.00
  WS02006115WS02006116    1.00   0.00  0.00  0.00  1.00  0.00  0.00  0.00  0.00  0.00
  WS02006116WS02004401    1.00   0.00  0.00  0.00  1.00  0.00  0.00  0.00  0.00  0.00
  WS02006228WS02006109    1.00   0.00  0.00  0.00  1.00  0.00  0.00  0.00  0.00  0.00
  WS02006229WS02006228    1.00   0.00  0.00  0.00  1.00  0.00  0.00  0.00  0.00  0.00
  WS02006230WS02006229    1.00   0.00  0.00  0.00  1.00  0.00  0.00  0.00  0.03  0.00
  WS02006231WS02006230    1.00   0.00  0.00  0.00  0.42  0.00  0.58  0.00  0.00  0.00
  WS02006232WS02006231    1.00   0.00  0.00  0.00  0.98  0.00  0.01  0.00  0.00  0.00
  WS02006234WS02006232    1.00   0.00  0.00  0.00  1.00  0.00  0.00  0.00  0.13  0.00
  WS02006235WS02006234    1.00   0.04  0.00  0.00  0.91  0.00  0.05  0.00  0.00  0.00
  WS02006238WS02006235    1.00   0.00  0.00  0.00  1.00  0.00  0.00  0.00  0.01  0.00
  WS02006239WS02006238    1.00   0.03  0.00  0.00  0.96  0.00  0.00  0.01  0.02  0.00
  WS02006240WS02006239    1.00   0.03  0.00  0.00  0.90  0.00  0.00  0.07  0.03  0.00
  WS02006242WS02006240    1.00   0.02  0.02  0.00  0.95  0.00  0.02  0.00  0.00  0.00
  WS02006243WS02006242    1.00   0.01  0.00  0.00  0.95  0.00  0.00  0.03  0.34  0.00
  WS02006245WS02006243    1.00   0.01  0.00  0.00  0.92  0.00  0.00  0.07  0.00  0.00
  WS02006247WS02006245    1.00   0.01  0.00  0.00  0.96  0.00  0.00  0.03  0.00  0.00
  WS02006248WS02006247    1.00   0.01  0.00  0.00  0.97  0.00  0.00  0.03  0.34  0.00
  WS02006249WS02006248    1.00   0.00  0.01  0.00  0.79  0.00  0.20  0.00  0.00  0.00
  WS02006251WS02006249    1.00   0.00  0.00  0.00  1.00  0.00  0.00  0.00  0.34  0.00
  WS02006252WS02006251    1.00   0.02  0.12  0.00  0.30  0.00  0.56  0.00  0.00  0.00
  WS02006256WS02006235    1.00   0.00  0.00  0.00  0.99  0.01  0.00  0.00  0.02  0.00
  WSF200WS02003060        1.00   0.00  0.01  0.00  0.19  0.80  0.00  0.00  0.45  0.00
  YS02001580YS02001583    1.00   0.08  0.56  0.00  0.36  0.00  0.00  0.00  0.60  0.00
  YS02001583YS02001586    1.00   0.17  0.43  0.00  0.40  0.00  0.00  0.00  0.61  0.00
  YS02001586YS02001590    1.00   0.04  0.00  0.00  0.65  0.09  0.00  0.22  0.26  0.00
  YS02001590YS02001593    1.00   0.04  0.00  0.00  0.30  0.00  0.66  0.00  0.00  0.00
  YS02001593YS02001596    1.00   0.04  0.00  0.00  0.31  0.01  0.00  0.64  0.01  0.00
  YS02001596YS02001600    1.00   0.04  0.00  0.00  0.35  0.01  0.00  0.60  0.02  0.00
  YS02001600YS02001601    1.00   0.04  0.00  0.00  0.96  0.00  0.00  0.00  0.53  0.00
  YS02001601YS02001602    1.00   0.04  0.00  0.00  0.96  0.00  0.00  0.00  0.00  0.00
  YS02001602YS02001605    1.00   0.04  0.00  0.00  0.96  0.00  0.00  0.00  0.00  0.00
  YS02001605YS02001607    1.00   0.04  0.00  0.00  0.96  0.00  0.00  0.00  0.00  0.00
  YS02001607YS02001610    1.00   0.04  0.00  0.00  0.96  0.00  0.00  0.00  0.00  0.00
  YS02001610YS02001613    1.00   0.04  0.00  0.00  0.96  0.00  0.00  0.00  0.00  0.00
  YS02001613YS02001616    1.00   0.04  0.00  0.00  0.96  0.00  0.00  0.00  0.00  0.00
  YS02001616YS02001619    1.00   0.04  0.00  0.00  0.96  0.00  0.00  0.00  0.00  0.00
  YS02001619YS02001622    1.00   0.04  0.00  0.00  0.95  0.01  0.00  0.00  0.25  0.00
  YS02001622YS02001625    1.00   0.04  0.00  0.00  0.95  0.00  0.00  0.00  0.01  0.00
  YS02001625YS02001629    1.00   0.04  0.01  0.00  0.33  0.00  0.61  0.00  0.00  0.00
  YS02001629YS02163301    1.00   0.04  0.00  0.00  0.96  0.00  0.00  0.00  0.00  0.00
  YS02001633YS02163601    1.00   0.00  0.00  0.00  1.00  0.00  0.00  0.00  0.12  0.00
  YS02001641YS02001644    1.00   0.00  0.00  0.00  1.00  0.00  0.00  0.00  0.00  0.00
  YS02001644YS02001647    1.00   0.00  0.05  0.00  0.95  0.00  0.00  0.00  0.00  0.00
  YS02001647YS02001649    1.00   0.00  0.05  0.00  0.59  0.37  0.00  0.00  0.55  0.00
  YS02001649YS02001757    1.00   0.00  0.00  0.00  0.92  0.08  0.00  0.00  0.38  0.00
  YS02001652YS02001649    1.00   0.00  0.00  0.00  0.99  0.01  0.00  0.00  0.61  0.00
  YS02001655YS02001652    1.00   0.00  0.00  0.00  0.36  0.01  0.00  0.63  0.04  0.00
  YS02001658YS02001655    1.00   0.00  0.04  0.00  0.87  0.09  0.00  0.00  0.57  0.00
  YS02001661YS02001658    1.00   0.04  0.00  0.00  0.62  0.34  0.00  0.00  0.60  0.00
  YS02001664YS02001661    1.00   0.04  0.00  0.00  0.89  0.06  0.00  0.00  0.86  0.00
  YS02001745YS02001748    1.00   0.00  0.00  0.00  0.29  0.00  0.00  0.71  0.04  0.00
  YS02001748YS02001751    1.00   0.00  0.00  0.00  0.92  0.08  0.00  0.00  0.68  0.00
  YS02001751YS02001754    1.00   0.00  0.00  0.00  0.35  0.01  0.00  0.64  0.03  0.00
  YS02001754YS02001757    1.00   0.00  0.00  0.00  0.99  0.01  0.00  0.00  0.64  0.00
  YS02001757CaochengTiaoxuchi    1.00   0.00  0.00  0.00  1.00  0.00  0.00  0.00  0.22  0.00
  YS02001759YS02001757    1.00   0.00  0.00  0.00  0.99  0.01  0.00  0.00  0.51  0.00
  YS02001762YS02001759    1.00   0.00  0.00  0.00  1.00  0.00  0.00  0.00  0.03  0.00
  YS02001765YS02001762    1.00   0.00  0.00  0.00  1.00  0.00  0.00  0.00  0.56  0.00
  YS02001767YS02001765    1.00   0.00  0.00  0.00  1.00  0.00  0.00  0.00  0.01  0.00
  YS02001770YS02001767    1.00   0.00  0.00  0.00  1.00  0.00  0.00  0.00  0.00  0.00
  YS02001774YS02001770    1.00   0.00  0.04  0.00  0.89  0.00  0.07  0.00  0.00  0.00
  YS02001779YS02001774    1.00   0.00  0.00  0.00  1.00  0.00  0.00  0.00  0.64  0.00
  YS02001783YS02001784    1.00   0.00  0.05  0.00  0.95  0.00  0.00  0.00  0.53  0.00
  YS02001784YS02001785    1.00   0.00  0.00  0.00  1.00  0.00  0.00  0.00  0.12  0.00
  YS02001786YS02001788    1.00   0.00  0.00  0.00  0.83  0.17  0.00  0.00  0.00  0.00
  YS02001788YS02001790    1.00   0.00  0.00  0.00  0.15  0.85  0.00  0.00  0.73  0.00
  YS02001790YS02001791    1.00   0.00  0.00  0.00  0.01  0.99  0.00  0.00  0.11  0.00
  YS02001791YS02001793    1.00   0.00  0.00  0.00  0.00  1.00  0.00  0.00  0.04  0.00
  YS02001793JiankangQianchi    1.00   0.00  0.00  0.00  1.00  0.00  0.00  0.00  0.83  0.00
  YS02001882YS02001884    1.00   0.04  0.00  0.00  0.96  0.00  0.00  0.00  0.00  0.00
  YS02001884YS02001887    1.00   0.02  0.02  0.00  0.96  0.00  0.00  0.00  0.00  0.00
  YS02001887YS02001890    1.00   0.00  0.00  0.00  0.99  0.00  0.01  0.00  0.00  0.00
  YS02001890YS02001895    1.00   0.00  0.04  0.00  0.96  0.00  0.00  0.00  0.00  0.00
  YS02001895YS02001898    1.00   0.04  0.00  0.00  0.94  0.00  0.01  0.00  0.00  0.00
  YS02001898YS02001901    1.00   0.05  0.00  0.00  0.95  0.00  0.00  0.00  0.00  0.00
  YS02001901YS02001904    1.00   0.05  0.00  0.00  0.95  0.00  0.00  0.00  0.00  0.00
  YS02001904YS02001907    1.00   0.00  0.05  0.00  0.95  0.00  0.00  0.00  0.00  0.00
  YS02001907YS02006553    1.00   0.00  0.01  0.00  0.99  0.00  0.00  0.00  0.00  0.00
  YS02001910YS02001907    1.00   0.00  0.00  0.00  0.99  0.00  0.00  0.01  0.10  0.00
  YS02001915YS02001910    1.00   0.00  0.00  0.00  0.99  0.01  0.00  0.00  0.11  0.00
  YS02001918YS02001915    1.00   0.00  0.00  0.00  0.99  0.00  0.00  0.00  0.63  0.00
  YS02001920YS02001918    1.00   0.00  0.00  0.00  1.00  0.00  0.00  0.00  0.01  0.00
  YS02001923YS02001920    1.00   0.00  0.00  0.00  1.00  0.00  0.00  0.00  0.77  0.00
  YS02001926YS02001923    1.00   0.00  0.03  0.00  0.17  0.00  0.81  0.00  0.00  0.00
  YS02001929YS02001926    1.00   0.00  0.04  0.00  0.96  0.00  0.00  0.00  0.72  0.00
  YS02006553YS02006556    1.00   0.00  0.00  0.00  1.00  0.00  0.00  0.00  0.03  0.00
  YS02006556YS02006558    1.00   0.00  0.00  0.00  1.00  0.00  0.00  0.00  0.00  0.00
  YS02006558YS02006561    1.00   0.05  0.00  0.00  0.15  0.80  0.00  0.00  0.13  0.00
  YS02006561YS02001783    1.00   0.05  0.00  0.00  0.27  0.68  0.00  0.00  0.60  0.00
  YS02163301YS02001633    1.00   0.00  0.04  0.00  0.96  0.00  0.00  0.00  0.00  0.00
  YS02163601YS02164001    1.00   0.00  0.03  0.00  0.97  0.00  0.00  0.00  0.00  0.00
  YS02164001YS02001641    1.00   0.00  0.02  0.00  0.97  0.00  0.00  0.00  0.05  0.00
  
  
  *************************
  Conduit Surcharge Summary
  *************************
  
  ----------------------------------------------------------------------------
                                                           Hours        Hours 
                         --------- Hours Full --------   Above Full   Capacity
  Conduit                Both Ends  Upstream  Dnstream   Normal Flow   Limited
  ----------------------------------------------------------------------------
  WS02003072WS02003073        0.01      0.01      0.01      2.40         0.01
  WS02004401WS02004402        0.01      0.01      0.01      0.01         0.01
  WS02004402WS02004403        0.01      0.01      0.01      0.01         0.01
  WS02004404WS02004405        0.01      0.01      0.01      4.40         0.01
  WS02004405WS02004406        0.01      0.01      0.01      1.98         0.01
  WS02006109WS02006110        1.98      1.99      3.15      2.01         0.01
  WS02006110WS02006113        0.01      0.01      3.16      0.01         0.01
  WS02006111WS02006112        0.01      0.01      3.29      0.01         0.01
  WS02006112WS02006115        0.01      0.01      2.05      0.01         0.01
  WS02006113WS02006111        0.01      0.01      0.01      0.01         0.01
  WS02006115WS02006116        0.01      0.01      0.01      0.01         0.01
  WS02006116WS02004401        0.01      0.01      0.01      0.01         0.01
  WS02006228WS02006109        3.15      3.16      3.15      3.47         3.15
  WS02006229WS02006228        3.14      3.15      3.14      3.26         3.11
  WS02006230WS02006229        3.20      3.24      3.20      4.52         3.20
  WS02006231WS02006230        1.97      1.97      2.20      4.34         0.01
  WS02006232WS02006231        2.12      2.12      3.15      2.24         0.01
  WS02006234WS02006232        2.91      2.91      3.15      2.15         2.23
  WS02006235WS02006234        2.64      2.65      3.02      4.29         0.05
  WS02006238WS02006235        3.10      3.10      3.15      0.01         0.02
  WS02006239WS02006238        3.14      3.16      3.14      3.15         2.67
  WS02006240WS02006239        3.06      3.14      3.06      3.13         2.39
  WS02006242WS02006240        3.10      3.10      3.16      3.20         0.01
  WS02006243WS02006242        3.13      3.13      3.15      0.01         0.15
  WS02006245WS02006243        3.12      3.12      3.13      1.12         1.36
  WS02006247WS02006245        3.12      3.12      3.12      4.28         3.10
  WS02006248WS02006247        3.11      3.11      3.12      0.01         0.19
  WS02006249WS02006248        3.11      3.11      3.11      4.27         0.01
  WS02006251WS02006249        3.11      3.11      3.11      3.14         2.90
  WS02006252WS02006251        3.16      3.16      3.24      3.16         0.01
  WS02006256WS02006235        4.10      4.32      6.30      2.46         0.10
  YS02001580YS02001583        1.83      1.83      1.86      0.01         0.01
  YS02001583YS02001586        1.83      1.83      1.95      0.01         0.01
  YS02001586YS02001590        1.95      1.95      2.00      0.01         0.01
  YS02001590YS02001593        2.00      2.00      2.01      2.00         0.01
  YS02001593YS02001596        2.01      2.01      2.07      0.01         0.01
  YS02001596YS02001600        2.09      2.09      2.15      0.01         0.01
  YS02001600YS02001601        2.18      2.18      2.34      0.01         0.01
  YS02001601YS02001602        2.29      2.29      2.36      2.12         0.01
  YS02001602YS02001605        2.26      2.26      2.29      2.81         0.01
  YS02001605YS02001607        2.25      2.26      2.27      2.22         2.17
  YS02001607YS02001610        2.00      2.00      2.02      0.01         0.01
  YS02001610YS02001613        2.00      2.00      2.02      0.01         0.01
  YS02001613YS02001616        1.97      1.97      2.00      0.01         0.01
  YS02001616YS02001619        1.96      1.96      1.97      0.01         0.01
  YS02001619YS02001622        1.96      1.96      1.97      1.93         1.77
  YS02001622YS02001625        1.97      1.97      2.10      0.01         0.01
  YS02001625YS02001629        1.94      1.94      2.10      0.01         0.01
  YS02001629YS02163301        2.12      2.12      2.13      0.05         0.05
  YS02001633YS02163601        2.15      2.15      2.19      0.10         0.11
  YS02001641YS02001644        2.14      2.15      2.14      2.40         2.12
  YS02001644YS02001647        1.98      1.98      2.14      0.01         0.01
  YS02001647YS02001649        1.98      1.98      2.10      0.01         0.01
  YS02001649YS02001757        2.10      2.10      2.18      0.13         0.09
  YS02001652YS02001649        1.96      1.96      2.10      0.01         0.01
  YS02001655YS02001652        1.82      1.82      1.94      0.01         0.01
  YS02001658YS02001655        1.03      1.03      1.82      0.01         0.01
  YS02001661YS02001658        0.01      0.01      1.03      0.01         0.01
  YS02001748YS02001751        0.53      0.53      1.75      0.01         0.01
  YS02001751YS02001754        1.75      1.75      1.89      0.01         0.01
  YS02001754YS02001757        1.92      1.92      2.18      0.01         0.01
  YS02001757CaochengTiaoxuchi        2.18      2.18      3.16      0.59         0.56
  YS02001759YS02001757        2.11      2.11      2.18      0.01         0.01
  YS02001762YS02001759        2.07      2.07      2.11      0.01         0.01
  YS02001765YS02001762        2.04      2.04      2.07      0.01         0.01
  YS02001767YS02001765        2.01      2.01      2.04      0.01         0.01
  YS02001770YS02001767        2.01      2.01      2.01      1.86         1.51
  YS02001774YS02001770        1.99      1.99      2.06      0.01         0.01
  YS02001779YS02001774        1.87      1.87      2.06      0.01         0.01
  YS02001783YS02001784        1.57      1.80      1.57      1.90         1.57
  YS02001784YS02001785        1.14      1.57      1.14      1.99         1.14
  YS02001786YS02001788        0.01      1.14      0.01      1.96         0.01
  YS02001790YS02001791        0.01      0.01      0.01      1.51         0.01
  YS02001793JiankangQianchi        0.01      0.01      7.99      0.01         0.01
  YS02001882YS02001884        1.31      1.31      1.36      0.01         0.01
  YS02001884YS02001887        1.53      1.53      1.78      0.01         0.01
  YS02001887YS02001890        1.80      1.80      1.82      0.01         0.01
  YS02001890YS02001895        1.27      1.27      1.83      0.01         0.01
  YS02001895YS02001898        1.26      1.26      1.27      0.01         0.01
  YS02001898YS02001901        1.28      1.28      1.53      0.01         0.01
  YS02001901YS02001904        1.43      1.43      1.53      0.01         0.01
  YS02001904YS02001907        1.43      1.43      1.95      0.01         0.01
  YS02001907YS02006553        2.00      2.00      2.02      0.01         0.01
  YS02001910YS02001907        1.83      1.83      1.94      0.01         0.01
  YS02001915YS02001910        1.31      1.31      1.83      0.01         0.01
  YS02001918YS02001915        1.12      1.12      1.31      0.01         0.01
  YS02001920YS02001918        1.12      1.12      1.14      0.01         0.01
  YS02001923YS02001920        1.04      1.04      1.14      0.01         0.01
  YS02001926YS02001923        0.01      0.01      0.01      0.01         0.01
  YS02001929YS02001926        0.01      0.01      0.01      0.01         0.01
  YS02006553YS02006556        1.89      1.89      1.95      0.01         0.01
  YS02006556YS02006558        1.93      1.93      1.95      0.01         0.01
  YS02006558YS02006561        1.18      1.88      1.18      1.98         1.18
  YS02006561YS02001783        1.08      1.08      1.80      0.01         0.01
  YS02163301YS02001633        2.13      2.13      2.16      0.01         0.01
  YS02163601YS02164001        2.14      2.14      2.19      0.07         0.01
  YS02164001YS02001641        2.14      2.14      2.15      0.34         0.64
  
  
  ***************
  Pumping Summary
  ***************
  
  ---------------------------------------------------------------------------------------------------------
                                                  Min       Avg       Max     Total     Power    % Time Off
                        Percent   Number of      Flow      Flow      Flow    Volume     Usage    Pump Curve
  Pump                 Utilized   Start-Ups       LPS       LPS       LPS  10^6 ltr     Kw-hr    Low   High
  ---------------------------------------------------------------------------------------------------------
  CC-R1                   31.60           1      0.00    683.00    683.00     6.216    123.92    0.0   39.4
  CC-R2                   27.86           1      0.00    683.00    683.00     5.480    110.28    0.0   44.7
  CC-S1                   55.52          79      0.00    200.00    200.00     3.198     16.13    0.0   22.4
  CC-S2                   39.49           1      0.00    200.00    200.00     2.275     10.57    0.0   31.5
  JK-R1                   18.16         438      0.00   1000.00   1000.00     5.231     71.20    0.0    0.0
  JK-R2                    0.00           0      0.00      0.00      0.00     0.000      0.00    0.0    0.0
  JK-S                    30.79         175      0.00    300.00    300.00     2.660     31.33    0.0    0.0
  

  Analysis begun on:  Wed Aug  9 15:58:25 2023
  Analysis ended on:  Wed Aug  9 16:01:26 2023
  Total elapsed time: 00:03:01