
  OWA STORM WATER MANAGEMENT MODEL - VERSION v5.1.14 (OWA 2022-07-31)
  --------------------------------------------------------------

  WARNING 04: minimum elevation drop used for Conduit WS02004404WS02004405
  WARNING 03: negative offset ignored for Link YS02001904YS02001907
  
  *********************************************************
  NOTE: The summary statistics displayed in this report are
  based on results found at every computational time step,  
  not just on results from each reporting time step.
  *********************************************************
  
  ****************
  Analysis Options
  ****************
  Flow Units ............... LPS
  Process Models:
    Rainfall/Runoff ........ YES
    RDII ................... NO
    Snowmelt ............... NO
    Groundwater ............ NO
    Flow Routing ........... YES
    Ponding Allowed ........ NO
    Water Quality .......... NO
  Infiltration Method ...... HORTON
  Flow Routing Method ...... DYNWAVE
  Surcharge Method ......... EXTRAN
  Starting Date ............ 08/28/2015 08:00:00
  Ending Date .............. 08/28/2015 16:00:00
  Antecedent Dry Days ...... 8.0
  Report Time Step ......... 00:01:00
  Wet Time Step ............ 00:01:00
  Dry Time Step ............ 00:01:00
  Routing Time Step ........ 30.00 sec
  Variable Time Step ....... YES
  Maximum Trials ........... 8
  Number of Threads ........ 4
  Head Tolerance ........... 0.001500 m
  
  
  **************************        Volume         Depth
  Runoff Quantity Continuity     hectare-m            mm
  **************************     ---------       -------
  Total Precipitation ......         5.130        84.691
  Evaporation Loss .........         0.000         0.000
  Infiltration Loss ........         0.260         4.297
  Surface Runoff ...........         4.810        79.401
  Final Storage ............         0.061         1.011
  Continuity Error (%) .....        -0.021
  
  
  **************************        Volume        Volume
  Flow Routing Continuity        hectare-m      10^6 ltr
  **************************     ---------     ---------
  Dry Weather Inflow .......         0.630         6.296
  Wet Weather Inflow .......         4.809        48.086
  Groundwater Inflow .......         0.000         0.000
  RDII Inflow ..............         0.000         0.000
  External Inflow ..........         0.105         1.045
  External Outflow .........         4.004        40.041
  Flooding Loss ............         1.712        17.117
  Evaporation Loss .........         0.000         0.000
  Exfiltration Loss ........         0.000         0.000
  Initial Stored Volume ....         0.303         3.031
  Final Stored Volume ......         0.182         1.822
  Continuity Error (%) .....        -0.893
  
  
  *************************
  Highest Continuity Errors
  *************************
  Node JK-storage (-7.71%)
  Node WS02006256 (6.37%)
  Node YS02001884 (3.77%)
  Node YS02001583 (-3.45%)
  Node HS02004817 (1.65%)
  
  
  ***************************
  Time-Step Critical Elements
  ***************************
  Link WS02006280WS02006229 (32.65%)
  Link YS02001793JiankangQianchi (29.13%)
  Link WS02006238WS02006235 (9.83%)
  Link WS02004404WS02004405 (3.69%)
  Link YS02001783YS02001784 (3.12%)
  
  
  ********************************
  Highest Flow Instability Indexes
  ********************************
  Link WS02006252WS02006251 (54)
  Link WS02004404WS02004405 (51)
  Link WS02006229WS02006228 (46)
  Link WS02004403WS02004404 (44)
  Link WS02006280WS02006229 (40)
  
  
  *************************
  Routing Time Step Summary
  *************************
  Minimum Time Step           :     0.01 sec
  Average Time Step           :     2.09 sec
  Maximum Time Step           :     6.46 sec
  Percent in Steady State     :    -0.00
  Average Iterations per Step :     5.40
  Percent Not Converging      :    41.86
  
  
  ***************************
  Subcatchment Runoff Summary
  ***************************
  
  ------------------------------------------------------------------------------------------------------------------------------
                            Total      Total      Total      Total     Imperv       Perv      Total       Total     Peak  Runoff
                           Precip      Runon       Evap      Infil     Runoff     Runoff     Runoff      Runoff   Runoff   Coeff
  Subcatchment                 mm         mm         mm         mm         mm         mm         mm    10^6 ltr      LPS
  ------------------------------------------------------------------------------------------------------------------------------
  sub0                      84.69       0.00       0.00       1.06      77.54       4.87      82.41        0.07    13.38   0.973
  sub1                      84.69       0.00       0.00       1.85      74.13       7.47      81.60        0.54    97.01   0.964
  sub2                      84.69       0.00       0.00       8.12      52.45      23.22      75.67        0.71   117.28   0.893
  sub3                      84.69       0.00       0.00       8.79      52.41      22.55      74.95        1.69   273.69   0.885
  sub4                      84.69       0.00       0.00       2.06      73.95       7.26      81.20        1.69   274.42   0.959
  sub5                      84.69       0.00       0.00       1.13      77.46       4.80      82.26        0.93   166.94   0.971
  sub7                      84.69       0.00       0.00       1.43      75.84       6.20      82.03        0.28    52.39   0.969
  sub8                      84.69       0.00       0.00       1.45      75.82       6.18      82.00        0.52    97.18   0.968
  sub9                      84.69       0.00       0.00       1.45      75.82       6.17      81.99        0.39    72.83   0.968
  sub10                     84.69       0.00       0.00       1.30      76.64       5.48      82.12        0.91   163.99   0.970
  sub11                     84.69       0.00       0.00       1.27      76.66       5.51      82.17        0.95   178.19   0.970
  sub12                     84.69       0.00       0.00       2.07      72.52       8.95      81.47        0.71   139.71   0.962
  sub14                     84.69       0.00       0.00       1.46      75.82       6.17      81.99        0.78   143.63   0.968
  sub15                     84.69       0.00       0.00       5.73      58.32      19.68      77.99        1.34   231.15   0.921
  sub16                     84.69       0.00       0.00       5.94      55.85      22.01      77.86        0.82   149.60   0.919
  sub17                     84.69       0.00       0.00       5.79      56.68      21.32      77.99        0.67   122.08   0.921
  sub22                     84.69       0.00       0.00       8.66      47.50      27.76      75.26        4.75   812.86   0.889
  sub23                     84.69       0.00       0.00       7.08      52.50      24.26      76.76        3.66   635.63   0.906
  sub60                     84.69       0.00       0.00       1.95      73.33       8.21      81.54        1.07   201.32   0.963
  sub61                     84.69       0.00       0.00       2.84      69.17      11.56      80.73        1.48   279.17   0.953
  sub62                     84.69       0.00       0.00       1.30      76.63       5.47      82.11        2.25   404.03   0.969
  sub63                     84.69       0.00       0.00       5.27      59.17      19.30      78.46        1.78   322.20   0.926
  sub64                     84.69       0.00       0.00       2.66      70.78      10.04      80.82        1.94   336.48   0.954
  sub65                     84.69       0.00       0.00       2.30      72.42       8.71      81.13        2.23   380.30   0.958
  sub66                     84.69       0.00       0.00       6.45      59.05      18.11      77.15        3.60   588.81   0.911
  sub67                     84.69       0.00       0.00       1.24      76.69       5.54      82.22        1.53   298.10   0.971
  sub68                     84.69       0.00       0.00       2.36      71.65       9.50      81.15        2.23   409.53   0.958
  sub69                     84.69       0.00       0.00       2.16      71.87      10.55      82.42        3.05   508.28   0.973
  sub70                     84.69       0.00       0.00       7.01      55.72      21.79      77.51        2.24   351.86   0.915
  sub71                     84.69       0.00       0.00       1.34      76.58       5.43      82.02        2.14   366.73   0.968
  sub72                     84.69       0.00       0.00       1.20      77.35       4.73      82.08        1.13   184.10   0.969
  
  
  ******************
  Node Depth Summary
  ******************
  
  ---------------------------------------------------------------------------------
                                 Average  Maximum  Maximum  Time of Max    Reported
                                   Depth    Depth      HGL   Occurrence   Max Depth
  Node                 Type       Meters   Meters   Meters  days hr:min      Meters
  ---------------------------------------------------------------------------------
  HS02004478           JUNCTION     0.47     1.52    10.75     0  01:41        1.37
  HS02004479           JUNCTION     0.57     1.68    10.88     0  01:41        1.59
  HS02004480           JUNCTION     0.54     1.65    10.89     0  01:41        1.55
  HS02004770           JUNCTION     0.54     1.42    11.25     0  01:37        1.42
  HS02004777           JUNCTION     0.56     1.48    11.28     0  01:37        1.45
  HS02004785           JUNCTION     0.44     1.49    11.39     0  01:37        1.33
  HS02004788           JUNCTION     0.41     1.42    11.32     0  01:37        1.31
  HS02004792           JUNCTION     0.54     1.60    11.12     0  01:10        1.60
  HS02004799           JUNCTION     0.64     1.76    10.97     0  01:41        1.71
  HS02004802           JUNCTION     0.56     1.70    10.83     0  01:41        1.48
  HS02004807           JUNCTION     0.53     1.89    11.06     0  01:41        1.45
  HS02004817           JUNCTION     0.82     2.40    11.25     0  01:41        1.78
  HS02004824           JUNCTION     0.37     1.99    11.40     0  01:41        1.22
  HS02004830           JUNCTION     0.35     2.03    11.50     0  01:41        1.15
  HS02004837           JUNCTION     0.29     2.04    11.62     0  01:41        1.20
  HS02004842           JUNCTION     0.58     2.22    11.49     0  01:41        1.50
  HS02004848           JUNCTION     0.26     2.05    11.65     0  01:41        1.43
  HS02004852           JUNCTION     0.29     2.12    11.63     0  01:40        1.59
  HS02004856           JUNCTION     0.34     2.07    11.50     0  01:41        1.49
  HS02004862           JUNCTION     0.31     2.00    11.38     0  01:40        1.03
  HS02004870           JUNCTION     0.31     1.96    11.25     0  01:40        1.05
  HS02004876           JUNCTION     0.41     1.93    10.96     0  01:41        1.21
  HS02004881           JUNCTION     0.34     1.65    10.68     0  01:41        1.08
  HS02004901           JUNCTION     0.55     1.42    11.24     0  01:37        1.42
  WS02001211           JUNCTION     0.67     0.83     5.67     0  01:20        0.81
  WS02001212           JUNCTION     0.42     0.60     5.66     0  01:19        0.57
  WS02001213           JUNCTION     0.66     0.92     5.69     0  01:19        0.85
  WS02003059           JUNCTION     0.72     0.93     5.62     0  01:21        0.93
  WS02003060           JUNCTION     0.46     0.67     5.60     0  02:22        0.67
  WS02003066           JUNCTION     0.29     0.44     6.00     0  01:42        0.44
  WS02003067           JUNCTION     0.63     0.91     6.23     0  01:13        0.88
  WS02003069           JUNCTION     0.52     0.76     5.34     0  02:23        0.76
  WS02003072           JUNCTION     0.57     0.79     5.16     0  02:23        0.79
  WS02003073           JUNCTION     0.35     0.50     4.57     0  02:24        0.50
  WS02004138           JUNCTION     0.13     0.14     7.39     0  00:32        0.14
  WS02004139           JUNCTION     0.61     0.75     5.66     0  01:17        0.75
  WS02004401           JUNCTION     1.03     2.66     8.66     0  01:11        1.70
  WS02004402           JUNCTION     1.03     2.49     8.45     0  01:11        1.67
  WS02004403           JUNCTION     1.01     2.25     8.18     0  01:11        1.65
  WS02004404           JUNCTION     1.06     2.17     8.02     0  01:11        1.61
  WS02004405           JUNCTION     1.04     2.19     8.04     0  01:11        1.56
  WS02004406           JUNCTION     1.00     1.89     7.72     0  01:11        1.60
  WS02004407           JUNCTION     0.41     0.81     7.12     0  01:41        0.81
  WS02004409           JUNCTION     0.75     1.37     7.14     0  01:13        1.32
  WS02004410           JUNCTION     0.73     1.23     6.95     0  01:13        1.22
  WS02004411           JUNCTION     0.72     1.19     6.87     0  01:14        1.19
  WS02004412           JUNCTION     0.69     1.10     6.74     0  01:14        1.07
  WS02004413           JUNCTION     0.80     2.29     7.76     0  01:13        1.12
  WS02006109           JUNCTION     1.48     2.64     9.26     0  01:11        2.64
  WS02006110           JUNCTION     1.34     2.76     9.34     0  01:11        2.34
  WS02006111           JUNCTION     0.75     2.68     9.39     0  01:11        1.58
  WS02006112           JUNCTION     1.32     2.68     8.56     0  01:11        2.17
  WS02006113           JUNCTION     0.85     2.73     9.62     0  01:11        1.72
  WS02006115           JUNCTION     1.00     3.26     9.40     0  01:11        1.77
  WS02006116           JUNCTION     1.05     3.35     9.39     0  01:11        1.78
  WS02006228           JUNCTION     1.61     3.02     9.67     0  01:41        2.98
  WS02006229           JUNCTION     1.66     3.20     9.90     0  01:41        3.13
  WS02006230           JUNCTION     1.51     2.65     9.39     0  01:11        2.65
  WS02006231           JUNCTION     1.18     2.24     9.36     0  01:09        2.24
  WS02006232           JUNCTION     1.24     2.18     9.22     0  01:11        2.18
  WS02006234           JUNCTION     1.09     1.96     9.12     0  01:10        1.96
  WS02006235           JUNCTION     1.08     2.00     9.16     0  01:10        2.00
  WS02006238           JUNCTION     1.10     2.15     9.29     0  01:29        2.15
  WS02006239           JUNCTION     1.02     2.03     9.24     0  01:10        2.03
  WS02006240           JUNCTION     0.94     2.10     9.39     0  01:10        2.10
  WS02006242           JUNCTION     0.95     1.55     8.82     0  01:10        1.55
  WS02006243           JUNCTION     0.82     1.48     8.90     0  01:11        1.48
  WS02006245           JUNCTION     0.78     1.56     9.04     0  01:11        1.34
  WS02006247           JUNCTION     0.77     1.47     8.97     0  01:11        1.27
  WS02006248           JUNCTION     0.70     1.10     8.69     0  01:11        1.10
  WS02006249           JUNCTION     0.71     1.09     8.69     0  01:11        1.09
  WS02006251           JUNCTION     1.05     2.14     9.81     0  01:41        2.07
  WS02006252           JUNCTION     0.76     1.50     9.74     0  00:00        1.50
  WS02006253           JUNCTION     1.19     2.87    10.52     0  01:41        2.42
  WS02006256           JUNCTION     1.33     2.35     9.28     0  00:00        2.35
  WS02006280           JUNCTION     0.66     1.72     9.99     0  01:41        1.63
  WS02006284           JUNCTION     0.85     1.95    10.35     0  01:11        1.79
  WS02006287           JUNCTION     0.57     1.69    10.64     0  01:41        1.54
  WSF200               JUNCTION     0.30     0.55     5.78     0  01:14        0.50
  YS02001580           JUNCTION     0.26     1.05     9.59     0  01:14        0.78
  YS02001583           JUNCTION     0.30     1.10     9.60     0  01:35        0.82
  YS02001586           JUNCTION     0.45     1.13     9.30     0  01:14        1.13
  YS02001590           JUNCTION     0.60     1.40     9.26     0  01:14        1.37
  YS02001593           JUNCTION     0.54     1.32     9.18     0  01:14        1.29
  YS02001596           JUNCTION     0.72     1.68     9.10     0  01:14        1.66
  YS02001600           JUNCTION     0.84     1.87     9.00     0  01:14        1.87
  YS02001601           JUNCTION     1.03     2.06     8.90     0  01:13        2.06
  YS02001602           JUNCTION     0.90     1.87     8.77     0  01:14        1.87
  YS02001605           JUNCTION     0.82     1.78     8.68     0  02:42        1.78
  YS02001607           JUNCTION     0.72     1.68     8.53     0  02:42        1.68
  YS02001610           JUNCTION     0.76     1.68     8.48     0  02:20        1.68
  YS02001613           JUNCTION     0.72     1.70     8.54     0  02:42        1.70
  YS02001616           JUNCTION     0.65     1.61     8.52     0  02:42        1.61
  YS02001619           JUNCTION     0.63     1.61     8.54     0  02:42        1.61
  YS02001622           JUNCTION     0.61     1.62     8.52     0  02:42        1.62
  YS02001625           JUNCTION     0.85     1.78     8.38     0  02:21        1.78
  YS02001629           JUNCTION     0.76     1.85     8.40     0  02:54        1.80
  YS02001633           JUNCTION     0.81     2.08     8.53     0  02:42        2.08
  YS02001641           JUNCTION     0.72     1.88     8.32     0  02:54        1.60
  YS02001644           JUNCTION     0.69     1.91     8.34     0  02:54        1.49
  YS02001647           JUNCTION     0.44     1.65     8.26     0  02:54        1.13
  YS02001649           JUNCTION     0.49     1.89     8.28     0  02:54        1.24
  YS02001652           JUNCTION     0.35     2.16     8.76     0  02:54        1.05
  YS02001655           JUNCTION     0.23     0.85     7.70     0  02:59        0.78
  YS02001658           JUNCTION     0.13     0.54     7.68     0  03:00        0.51
  YS02001661           JUNCTION     0.16     0.31     7.71     0  01:41        0.31
  YS02001664           JUNCTION     0.09     0.21     8.14     0  01:41        0.21
  YS02001745           JUNCTION     0.08     0.19     7.71     0  01:40        0.19
  YS02001748           JUNCTION     0.11     0.44     7.52     0  02:58        0.42
  YS02001751           JUNCTION     0.16     0.66     7.54     0  02:59        0.63
  YS02001754           JUNCTION     0.28     0.92     7.53     0  02:59        0.89
  YS02001757           JUNCTION     0.49     1.46     7.72     0  02:54        1.23
  YS02001759           JUNCTION     0.42     1.31     7.67     0  02:54        1.15
  YS02001762           JUNCTION     0.40     1.20     7.60     0  02:57        1.11
  YS02001765           JUNCTION     0.38     1.13     7.58     0  02:57        1.06
  YS02001767           JUNCTION     0.37     1.07     7.56     0  02:57        1.03
  YS02001770           JUNCTION     0.38     1.05     7.55     0  02:59        1.03
  YS02001774           JUNCTION     0.44     1.12     7.54     0  02:59        1.11
  YS02001779           JUNCTION     0.26     0.85     7.54     0  03:00        0.85
  YS02001783           JUNCTION     0.44     1.20     7.34     0  02:21        1.19
  YS02001784           JUNCTION     0.44     1.09     7.16     0  02:21        1.09
  YS02001786           JUNCTION     0.36     0.86     6.89     0  02:22        0.85
  YS02001788           JUNCTION     0.27     0.61     6.59     0  02:22        0.61
  YS02001790           JUNCTION     0.32     0.71     6.36     0  02:22        0.71
  YS02001791           JUNCTION     0.19     0.43     5.90     0  02:22        0.42
  YS02001793           JUNCTION     0.11     0.25     5.08     0  02:26        0.25
  YS02001882           JUNCTION     0.51     1.59     8.30     0  02:23        1.55
  YS02001884           JUNCTION     0.60     1.68     8.30     0  02:23        1.66
  YS02001887           JUNCTION     0.67     1.76     8.30     0  02:23        1.73
  YS02001890           JUNCTION     0.70     1.79     8.29     0  02:23        1.76
  YS02001895           JUNCTION     0.48     1.54     8.29     0  02:23        1.52
  YS02001898           JUNCTION     0.49     1.54     8.28     0  02:23        1.53
  YS02001901           JUNCTION     0.60     1.67     8.27     0  02:23        1.64
  YS02001904           JUNCTION     0.58     1.63     8.26     0  02:23        1.63
  YS02001907           JUNCTION     0.89     1.96     8.25     0  02:21        1.96
  YS02001910           JUNCTION     0.70     1.78     8.28     0  02:22        1.77
  YS02001915           JUNCTION     0.51     1.61     8.33     0  02:23        1.61
  YS02001918           JUNCTION     0.31     1.24     8.30     0  02:22        1.23
  YS02001920           JUNCTION     0.38     1.31     8.31     0  02:22        1.28
  YS02001923           JUNCTION     0.22     1.05     8.31     0  02:22        1.05
  YS02001926           JUNCTION     0.22     0.87     8.32     0  02:22        0.87
  YS02001929           JUNCTION     0.12     0.62     8.32     0  02:23        0.62
  YS02006553           JUNCTION     0.89     1.97     8.25     0  02:23        1.97
  YS02006556           JUNCTION     0.85     1.90     8.21     0  02:22        1.89
  YS02006558           JUNCTION     0.89     1.93     8.20     0  02:22        1.92
  YS02006561           JUNCTION     0.25     0.85     7.51     0  02:23        0.85
  YS02163301           JUNCTION     0.77     2.03     8.55     0  02:42        2.03
  YS02163601           JUNCTION     0.81     2.08     8.48     0  02:42        2.08
  YS02164001           JUNCTION     0.72     1.93     8.39     0  02:54        1.84
  YSB1154              JUNCTION     0.71     1.88    10.94     0  01:41        1.78
  YSB1171              JUNCTION     0.85     1.95    10.85     0  01:41        1.91
  YSB1174              JUNCTION     0.66     1.78    10.89     0  01:41        1.71
  YSB6556              JUNCTION     0.61     1.74    10.91     0  01:41        1.66
  CC-1                 OUTFALL      0.00     0.00     0.00     0  00:00        0.00
  CC-2                 OUTFALL      0.00     0.00     0.00     0  00:00        0.00
  JK-1                 OUTFALL      0.00     0.00     0.00     0  00:00        0.00
  JK-2                 OUTFALL      0.00     0.00     0.00     0  00:00        0.00
  WSC                  OUTFALL      0.35     0.50     1.17     0  02:24        0.50
  CC-storage           STORAGE      0.45     1.33     6.83     0  03:05        1.33
  JK-storage           STORAGE      0.05     2.99     3.79     0  00:00        0.68
  XR-storage           STORAGE      7.75     9.26     7.26     0  08:00        9.26
  
  
  *******************
  Node Inflow Summary
  *******************
  
  -------------------------------------------------------------------------------------------------
                                  Maximum  Maximum                  Lateral       Total        Flow
                                  Lateral    Total  Time of Max      Inflow      Inflow     Balance
                                   Inflow   Inflow   Occurrence      Volume      Volume       Error
  Node                 Type           LPS      LPS  days hr:min    10^6 ltr    10^6 ltr     Percent
  -------------------------------------------------------------------------------------------------
  HS02004478           JUNCTION      0.00  2087.65     0  02:20           0        14.4      -0.017
  HS02004479           JUNCTION      0.00   314.83     0  01:41           0        1.66       0.054
  HS02004480           JUNCTION      0.00  2014.89     0  01:38           0        12.6       0.022
  HS02004770           JUNCTION    635.63   705.50     0  01:37        3.66        4.24       0.067
  HS02004777           JUNCTION      0.03   720.50     0  01:37    0.000864        4.03       0.134
  HS02004785           JUNCTION      0.15   726.81     0  01:36     0.00432        4.03       0.003
  HS02004788           JUNCTION    232.82   972.57     0  01:37        1.39        5.42       0.004
  HS02004792           JUNCTION    813.14  1588.71     0  01:38        4.76        10.2       0.003
  HS02004799           JUNCTION    143.63  1725.67     0  01:38        0.78          11       0.052
  HS02004802           JUNCTION      0.00   369.09     0  03:06           0        1.81       0.192
  HS02004807           JUNCTION    178.19   335.18     0  01:33       0.954        1.89       0.236
  HS02004817           JUNCTION      0.60   336.46     0  01:38      0.0173        1.02       1.677
  HS02004824           JUNCTION    274.47   573.39     0  01:38         1.7        2.18       0.035
  HS02004830           JUNCTION      0.15   577.41     0  01:37     0.00432        1.65       0.075
  HS02004837           JUNCTION    170.34   739.02     0  01:38        1.09        2.46       0.028
  HS02004842           JUNCTION      0.00   715.63     0  01:39           0         2.2       0.595
  HS02004848           JUNCTION    273.69   936.21     0  01:39        1.69        3.76       0.000
  HS02004852           JUNCTION      0.00   909.82     0  01:39           0        3.64       0.001
  HS02004856           JUNCTION     72.83   971.89     0  01:40       0.394        4.04       0.044
  HS02004862           JUNCTION    117.48  1058.48     0  01:39       0.711        4.75      -0.007
  HS02004870           JUNCTION     97.18  1118.03     0  01:40       0.524        5.27       0.010
  HS02004876           JUNCTION     97.01  1126.67     0  01:41       0.542        5.81       0.016
  HS02004881           JUNCTION     52.39  1183.81     0  01:41       0.276        6.09       0.011
  HS02004901           JUNCTION    149.60   366.35     0  02:21       0.815        1.02       0.176
  WS02001211           JUNCTION      7.35   335.37     0  01:18       0.212        5.45       0.609
  WS02001212           JUNCTION      0.00   415.63     0  01:16           0        5.42       0.272
  WS02001213           JUNCTION      0.00   393.21     0  01:15           0        5.42       0.342
  WS02003059           JUNCTION      0.00   441.62     0  01:14           0        5.42       0.593
  WS02003060           JUNCTION     16.53  1449.02     0  01:14       0.476        17.7       0.082
  WS02003066           JUNCTION      0.00  1229.64     0  01:41           0        11.8       0.013
  WS02003067           JUNCTION      0.00  1229.61     0  01:41           0        11.8       0.036
  WS02003069           JUNCTION      0.32  1440.10     0  02:23     0.00922        17.6       0.089
  WS02003072           JUNCTION      0.00  1440.08     0  02:23           0        17.6       0.119
  WS02003073           JUNCTION      1.82  1441.89     0  02:24      0.0524        17.7       0.121
  WS02004138           JUNCTION      0.00   380.00     0  00:00           0        5.25       0.053
  WS02004139           JUNCTION      0.32   273.11     0  01:17     0.00924        5.26       0.508
  WS02004401           JUNCTION      0.00  1229.52     0  01:40           0        11.9       0.089
  WS02004402           JUNCTION      0.00  1229.65     0  01:40           0        11.9       0.090
  WS02004403           JUNCTION      0.00  1230.19     0  01:40           0        11.9       0.086
  WS02004404           JUNCTION      0.16  1230.24     0  01:40     0.00467        11.9       0.073
  WS02004405           JUNCTION      0.04  1230.92     0  01:39      0.0011        11.9       0.107
  WS02004406           JUNCTION      0.00  1231.26     0  01:39           0        11.9       0.178
  WS02004407           JUNCTION      0.00  1231.21     0  01:39           0        11.9       0.011
  WS02004409           JUNCTION      0.00  1287.09     0  01:12           0        11.9       0.030
  WS02004410           JUNCTION      0.00  1304.06     0  01:12           0        11.9       0.040
  WS02004411           JUNCTION      0.00  1251.22     0  01:12           0        11.9       0.049
  WS02004412           JUNCTION      0.00  1229.75     0  01:41           0        11.9       0.065
  WS02004413           JUNCTION      0.00  1229.60     0  01:41           0        11.9       0.119
  WS02006109           JUNCTION      1.23  1259.74     0  01:11      0.0354        11.4       0.077
  WS02006110           JUNCTION      0.00  1260.01     0  01:11           0        11.3       0.069
  WS02006111           JUNCTION      0.00  1265.49     0  01:11           0        11.3       0.005
  WS02006112           JUNCTION    122.08  1233.82     0  01:11       0.669          12       0.171
  WS02006113           JUNCTION      0.00  1260.54     0  01:11           0        11.3       0.021
  WS02006115           JUNCTION      0.00  1234.14     0  01:11           0          12       0.063
  WS02006116           JUNCTION      0.00  1229.60     0  01:40           0        11.9      -0.018
  WS02006228           JUNCTION      0.00  1259.32     0  01:11           0        11.4       0.025
  WS02006229           JUNCTION      0.00  2090.70     0  01:42           0        16.4       0.047
  WS02006230           JUNCTION     10.28   920.77     0  01:42       0.296        7.24       0.132
  WS02006231           JUNCTION      0.00   639.42     0  01:09           0        5.05      -0.104
  WS02006232           JUNCTION      0.00   616.59     0  01:09           0        5.03       0.111
  WS02006234           JUNCTION      0.00   616.71     0  01:09           0           5      -0.057
  WS02006235           JUNCTION      0.00   662.12     0  01:10           0        4.72       0.140
  WS02006238           JUNCTION      0.00   674.35     0  01:10           0        4.62      -0.041
  WS02006239           JUNCTION      0.00   673.74     0  01:10           0        4.55      -0.082
  WS02006240           JUNCTION      0.00   835.37     0  01:10           0        4.52      -0.086
  WS02006242           JUNCTION      0.00   802.56     0  01:10           0         4.5      -0.007
  WS02006243           JUNCTION      0.00   745.28     0  01:10           0        3.67       0.017
  WS02006245           JUNCTION      0.00   426.45     0  03:57           0        3.68       0.293
  WS02006247           JUNCTION      0.00   509.50     0  01:11           0        3.68       0.012
  WS02006248           JUNCTION      0.00   558.61     0  01:11           0        4.09       0.036
  WS02006249           JUNCTION      0.00  1321.05     0  01:41           0        10.4       0.073
  WS02006251           JUNCTION      0.08  1319.43     0  01:41     0.00222        10.4      -0.021
  WS02006252           JUNCTION      0.00   400.00     0  00:00           0        4.57      -0.033
  WS02006253           JUNCTION     13.38  1201.32     0  01:41      0.0667        6.18       0.019
  WS02006256           JUNCTION      0.00   300.00     0  00:00           0        1.04       6.802
  WS02006280           JUNCTION      0.00  2089.18     0  01:42           0        14.3      -0.015
  WS02006284           JUNCTION      0.10  2088.36     0  01:42     0.00275        14.3      -0.002
  WS02006287           JUNCTION      0.00  2087.90     0  02:20           0        14.3       0.046
  WSF200               JUNCTION      0.00  1229.60     0  01:41           0        11.8       0.005
  YS02001580           JUNCTION      0.00    73.23     0  01:13           0     0.00828      -0.234
  YS02001583           JUNCTION      0.00   111.86     0  01:35           0      0.0309      -3.331
  YS02001586           JUNCTION    351.86   351.95     0  02:22        2.24        2.26       0.093
  YS02001590           JUNCTION      0.00   317.91     0  02:30           0        2.21      -0.037
  YS02001593           JUNCTION      0.00   317.87     0  02:29           0        2.21       0.014
  YS02001596           JUNCTION      0.00   317.86     0  02:30           0        2.21      -0.013
  YS02001600           JUNCTION      0.00   317.88     0  02:29           0        2.21       0.029
  YS02001601           JUNCTION    508.28   817.04     0  01:42        3.05        5.26       0.016
  YS02001602           JUNCTION      0.00   547.08     0  01:13           0        3.66       0.016
  YS02001605           JUNCTION      0.00   547.17     0  01:13           0        3.63       0.023
  YS02001607           JUNCTION      0.00   547.45     0  01:13           0        3.63       0.051
  YS02001610           JUNCTION      0.00   547.67     0  01:13           0        3.62       0.079
  YS02001613           JUNCTION      0.00   553.00     0  01:13           0        3.63       0.049
  YS02001616           JUNCTION      0.00   562.26     0  01:13           0        3.63       0.018
  YS02001619           JUNCTION    588.81   967.78     0  02:18         3.6        7.22      -0.001
  YS02001622           JUNCTION      0.00   967.36     0  02:18           0        7.21      -0.000
  YS02001625           JUNCTION      0.00   966.94     0  02:18           0        7.21       0.153
  YS02001629           JUNCTION      0.00   966.87     0  02:18           0        7.21       0.002
  YS02001633           JUNCTION    380.50  1332.99     0  02:18        2.24        9.45       0.036
  YS02001641           JUNCTION      0.00  1333.79     0  02:18           0        9.46       0.031
  YS02001644           JUNCTION    336.52  1655.92     0  02:19        1.94        11.4       0.030
  YS02001647           JUNCTION      0.00  1655.87     0  02:19           0        11.4       0.004
  YS02001649           JUNCTION      0.00  1972.13     0  01:42           0        13.2       0.007
  YS02001652           JUNCTION      0.00   443.21     0  02:27           0        1.78      -0.308
  YS02001655           JUNCTION      0.15   507.11     0  02:47     0.00443        1.79       0.124
  YS02001658           JUNCTION      0.00   322.02     0  01:41           0        1.79       0.015
  YS02001661           JUNCTION      0.00   322.11     0  01:41           0        1.78       0.019
  YS02001664           JUNCTION    322.20   322.20     0  01:41        1.78        1.78      -0.010
  YS02001745           JUNCTION    201.33   201.33     0  01:40        1.07        1.07       0.057
  YS02001748           JUNCTION      0.04   201.52     0  01:40      0.0013        1.07      -0.014
  YS02001751           JUNCTION      0.01   295.50     0  02:51    0.000317        1.07       0.135
  YS02001754           JUNCTION      0.26   302.69     0  01:51     0.00749        1.08      -0.171
  YS02001757           JUNCTION      0.00  2888.35     0  01:45           0          18       0.020
  YS02001759           JUNCTION    279.21   687.34     0  01:45        1.48        3.75      -0.011
  YS02001762           JUNCTION      0.00   432.22     0  01:45           0        2.27       0.003
  YS02001765           JUNCTION      0.00   430.72     0  01:42           0        2.27       0.006
  YS02001767           JUNCTION      0.54   427.19     0  01:46      0.0154        2.27       0.005
  YS02001770           JUNCTION    404.18   426.58     0  01:42        2.25        2.34      -0.020
  YS02001774           JUNCTION      0.00    77.11     0  01:05           0       0.145       0.677
  YS02001779           JUNCTION      0.01    61.80     0  02:23    0.000144      0.0568      -0.017
  YS02001783           JUNCTION      0.00  1138.45     0  02:23           0        7.08       0.004
  YS02001784           JUNCTION      1.06  1139.65     0  02:23      0.0305        7.11       0.007
  YS02001786           JUNCTION      0.06  1139.53     0  02:23     0.00162        7.11       0.010
  YS02001788           JUNCTION      0.07  1140.38     0  02:23     0.00204        7.11       0.004
  YS02001790           JUNCTION      0.15  1149.11     0  02:22     0.00446        7.12       0.004
  YS02001791           JUNCTION      0.00  1259.31     0  02:22           0        7.12      -0.002
  YS02001793           JUNCTION      0.00  1221.10     0  02:22           0        7.12      -0.050
  YS02001882           JUNCTION      0.00    68.89     0  01:11           0      0.0196       3.930
  YS02001884           JUNCTION      0.00   124.24     0  01:11           0      0.0682       3.920
  YS02001887           JUNCTION    298.55   315.03     0  01:39        1.54        1.59       0.266
  YS02001890           JUNCTION      0.00   317.66     0  01:39           0        1.53       0.340
  YS02001895           JUNCTION      0.00   318.26     0  01:39           0        1.53       0.193
  YS02001898           JUNCTION      0.00   308.85     0  01:40           0        1.53      -0.041
  YS02001901           JUNCTION      0.00   319.44     0  01:40           0        1.53       0.220
  YS02001904           JUNCTION      0.00   320.33     0  01:40           0        1.55       0.179
  YS02001907           JUNCTION      0.00   808.34     0  02:23           0        4.91       0.371
  YS02001910           JUNCTION      0.00   560.09     0  02:23           0        3.36       0.211
  YS02001915           JUNCTION    366.75   559.95     0  02:23        2.14        3.36       0.044
  YS02001918           JUNCTION      0.00   249.53     0  01:49           0        1.22       0.024
  YS02001920           JUNCTION      2.87   245.05     0  01:49      0.0827        1.21       0.085
  YS02001923           JUNCTION      0.04   243.03     0  01:46     0.00109        1.13      -0.024
  YS02001926           JUNCTION      0.05   219.10     0  01:45      0.0015        1.13       0.061
  YS02001929           JUNCTION    184.10   184.10     0  01:42        1.13        1.13      -0.008
  YS02006553           JUNCTION      0.00   777.08     0  02:24           0         4.9       0.242
  YS02006556           JUNCTION      0.00   777.44     0  02:24           0        4.92       0.172
  YS02006558           JUNCTION    410.41  1139.12     0  02:23        2.26        7.13       0.045
  YS02006561           JUNCTION      0.00  1138.46     0  02:23           0        7.08       0.000
  YS02163301           JUNCTION      0.00   967.27     0  02:18           0        7.22       0.025
  YS02163601           JUNCTION      0.11  1333.22     0  02:18     0.00317        9.44       0.055
  YS02164001           JUNCTION      0.00  1333.24     0  02:18           0        9.44       0.028
  YSB1154              JUNCTION    166.94   166.94     0  01:41       0.932       0.932       0.148
  YSB1171              JUNCTION      0.00   310.79     0  01:41           0        1.65       0.386
  YSB1174              JUNCTION    139.71   139.71     0  01:40       0.712       0.712       0.172
  YSB6556              JUNCTION      0.00   167.85     0  01:41           0       0.934       0.142
  CC-1                 OUTFALL       0.00   683.00     0  00:00           0         7.8       0.000
  CC-2                 OUTFALL       0.00   683.00     0  00:00           0         7.8       0.000
  JK-1                 OUTFALL       0.00  1000.00     0  00:00           0         3.4       0.000
  JK-2                 OUTFALL       0.00  1000.00     0  00:00           0         3.4       0.000
  WSC                  OUTFALL       0.00  1441.85     0  02:24           0        17.6       0.000
  CC-storage           STORAGE       0.00  2770.99     0  01:46           0        20.2      -0.255
  JK-storage           STORAGE       0.00  1286.78     0  02:26           0        7.27      -7.154
  XR-storage           STORAGE     200.00   200.00     0  00:00        5.76        6.36       0.001
  
  
  **********************
  Node Surcharge Summary
  **********************
  
  Surcharging occurs when water rises above the top of the highest conduit.
  ---------------------------------------------------------------------
                                               Max. Height   Min. Depth
                                   Hours       Above Crown    Below Rim
  Node                 Type      Surcharged         Meters       Meters
  ---------------------------------------------------------------------
  HS02004478           JUNCTION        1.38          0.602        0.338
  HS02004479           JUNCTION        1.64          0.880        0.170
  HS02004480           JUNCTION        1.70          0.944        0.156
  HS02004770           JUNCTION        1.53          0.720        0.000
  HS02004777           JUNCTION        1.54          0.780        0.000
  HS02004785           JUNCTION        1.40          0.790        0.000
  HS02004788           JUNCTION        1.39          0.720        0.000
  HS02004792           JUNCTION        1.64          0.900        0.000
  HS02004799           JUNCTION        1.82          1.060        0.000
  HS02004802           JUNCTION        1.69          0.987        0.223
  HS02004807           JUNCTION        1.66          1.187        0.033
  HS02004817           JUNCTION        2.11          1.702        0.038
  HS02004824           JUNCTION        1.40          1.295        0.015
  HS02004830           JUNCTION        1.38          1.330        0.000
  HS02004837           JUNCTION        0.73          1.340        0.000
  HS02004842           JUNCTION        1.54          1.520        0.000
  HS02004848           JUNCTION        0.58          1.347        0.023
  HS02004852           JUNCTION        0.86          1.420        0.000
  HS02004856           JUNCTION        0.72          1.300        0.000
  HS02004862           JUNCTION        1.35          1.300        0.000
  HS02004870           JUNCTION        1.37          1.262        0.138
  HS02004876           JUNCTION        1.42          1.232        0.328
  HS02004881           JUNCTION        1.40          0.952        0.498
  HS02004901           JUNCTION        1.54          0.720        0.000
  WS02004401           JUNCTION        2.29          1.660        0.000
  WS02004402           JUNCTION        2.33          1.491        0.249
  WS02004403           JUNCTION        2.33          1.247        0.783
  WS02004404           JUNCTION        2.51          1.172        1.608
  WS02004405           JUNCTION        2.46          1.188        1.612
  WS02004406           JUNCTION        2.43          0.888        1.562
  WS02004409           JUNCTION        1.95          0.370        1.990
  WS02004410           JUNCTION        1.94          0.228        2.312
  WS02004411           JUNCTION        1.93          0.195        2.335
  WS02004412           JUNCTION        1.77          0.100        2.210
  WS02004413           JUNCTION        2.07          1.287        0.913
  WS02006109           JUNCTION        2.98          1.820        0.000
  WS02006110           JUNCTION        2.80          1.850        0.000
  WS02006111           JUNCTION        2.04          1.870        0.000
  WS02006112           JUNCTION        2.85          1.680        0.000
  WS02006113           JUNCTION        2.06          1.930        0.000
  WS02006115           JUNCTION        2.20          2.250        0.000
  WS02006116           JUNCTION        2.21          2.290        0.000
  WS02006228           JUNCTION        2.96          2.185        0.015
  WS02006229           JUNCTION        1.97          1.023        0.047
  WS02006230           JUNCTION        2.56          1.570        0.000
  WS02006231           JUNCTION        2.80          1.530        0.000
  WS02006232           JUNCTION        3.03          1.480        0.000
  WS02006234           JUNCTION        2.82          1.240        0.000
  WS02006235           JUNCTION        2.91          1.290        0.000
  WS02006238           JUNCTION        2.95          1.430        0.000
  WS02006239           JUNCTION        2.91          1.290        0.000
  WS02006240           JUNCTION        2.92          1.390        0.000
  WS02006242           JUNCTION        3.03          0.820        0.000
  WS02006243           JUNCTION        2.92          0.770        0.000
  WS02006245           JUNCTION        2.92          0.850        0.000
  WS02006247           JUNCTION        2.95          0.760        0.000
  WS02006248           JUNCTION        2.90          0.380        0.000
  WS02006249           JUNCTION        2.93          0.390        0.000
  WS02006251           JUNCTION        2.77          1.114        0.066
  WS02006252           JUNCTION        3.17          1.100        0.000
  WS02006253           JUNCTION        2.77          1.834        0.646
  WS02006256           JUNCTION        6.63          2.050        0.000
  WS02006280           JUNCTION        1.81          0.673        0.107
  WS02006284           JUNCTION        1.71          0.668        0.132
  WS02006287           JUNCTION        1.57          0.687        0.203
  YS02001580           JUNCTION        1.43          0.450        0.000
  YS02001583           JUNCTION        1.44          0.460        0.040
  YS02001586           JUNCTION        1.69          0.510        0.000
  YS02001590           JUNCTION        1.84          0.750        0.000
  YS02001593           JUNCTION        1.84          0.702        0.138
  YS02001596           JUNCTION        2.02          0.952        0.118
  YS02001600           JUNCTION        2.08          1.190        0.000
  YS02001601           JUNCTION        2.26          1.440        0.000
  YS02001602           JUNCTION        2.20          1.270        0.000
  YS02001605           JUNCTION        2.17          1.180        0.000
  YS02001607           JUNCTION        1.72          0.680        0.000
  YS02001610           JUNCTION        1.76          0.680        0.000
  YS02001613           JUNCTION        1.70          0.700        0.000
  YS02001616           JUNCTION        1.63          0.610        0.000
  YS02001619           JUNCTION        1.60          0.610        0.000
  YS02001622           JUNCTION        1.59          0.620        0.000
  YS02001625           JUNCTION        1.96          0.780        0.000
  YS02001629           JUNCTION        1.46          0.470        0.000
  YS02001633           JUNCTION        1.96          1.060        0.000
  YS02001641           JUNCTION        1.76          0.881        0.219
  YS02001644           JUNCTION        1.67          0.910        0.010
  YS02001647           JUNCTION        0.40          0.646        0.254
  YS02001649           JUNCTION        0.79          0.890        0.160
  YS02001652           JUNCTION        0.06          1.130        0.000
  YS02001757           JUNCTION        0.74          0.461        0.749
  YS02001759           JUNCTION        0.41          0.305        0.905
  YS02001762           JUNCTION        0.27          0.203        0.947
  YS02001765           JUNCTION        0.14          0.135        0.965
  YS02001767           JUNCTION        0.06          0.068        0.962
  YS02001770           JUNCTION        0.01          0.023        0.897
  YS02001774           JUNCTION        0.27          0.121        0.929
  YS02001783           JUNCTION        1.40          0.401        1.199
  YS02001784           JUNCTION        1.25          0.295        1.195
  YS02001786           JUNCTION        0.34          0.055        1.375
  YS02001882           JUNCTION        0.75          0.586        0.244
  YS02001884           JUNCTION        0.88          0.625        0.245
  YS02001887           JUNCTION        1.37          0.714        0.236
  YS02001890           JUNCTION        1.42          0.737        0.023
  YS02001895           JUNCTION        0.68          0.541        0.209
  YS02001898           JUNCTION        0.64          0.511        0.229
  YS02001901           JUNCTION        1.21          0.665        0.205
  YS02001904           JUNCTION        1.05          0.629        0.221
  YS02001907           JUNCTION        1.89          0.950        0.000
  YS02001910           JUNCTION        1.52          0.777        0.323
  YS02001915           JUNCTION        0.78          0.614        0.386
  YS02001918           JUNCTION        0.26          0.237        0.573
  YS02001920           JUNCTION        0.33          0.306        0.834
  YS02006553           JUNCTION        1.94          0.966        0.224
  YS02006556           JUNCTION        1.70          0.857        0.493
  YS02006558           JUNCTION        1.68          0.831        0.569
  YS02006561           JUNCTION        0.10          0.054        1.096
  YS02163301           JUNCTION        1.96          1.030        0.000
  YS02163601           JUNCTION        1.98          1.080        0.000
  YS02164001           JUNCTION        1.79          0.933        0.167
  YSB1154              JUNCTION        2.00          1.180        0.220
  YSB1171              JUNCTION        2.01          1.100        0.000
  YSB1174              JUNCTION        1.88          1.077        0.173
  YSB6556              JUNCTION        1.79          1.043        0.057
  
  
  *********************
  Node Flooding Summary
  *********************
  
  Flooding refers to all water that overflows a node, whether it ponds or not.
  --------------------------------------------------------------------------
                                                             Total   Maximum
                                 Maximum   Time of Max       Flood    Ponded
                        Hours       Rate    Occurrence      Volume     Depth
  Node                 Flooded       LPS   days hr:min    10^6 ltr    Meters
  --------------------------------------------------------------------------
  HS02004770              0.12    100.92      0  01:37       0.006     0.000
  HS02004777              0.01     33.05      0  01:37       0.000     0.000
  HS02004785              0.01    194.85      0  01:37       0.000     0.000
  HS02004788              0.01    274.16      0  01:37       0.001     0.000
  HS02004792              0.07    119.25      0  01:41       0.004     0.000
  HS02004799              0.01     19.85      0  01:41       0.000     0.000
  HS02004830              0.01     19.54      0  01:41       0.000     0.000
  HS02004837              0.01    117.36      0  01:41       0.000     0.000
  HS02004842              0.01     79.14      0  01:41       0.000     0.000
  HS02004852              0.01    292.20      0  01:40       0.000     0.000
  HS02004856              0.01      9.27      0  01:41       0.000     0.000
  HS02004862              0.01    271.18      0  01:40       0.000     0.000
  HS02004901              0.57    366.34      0  02:21       0.438     0.000
  WS02004401              0.01     78.59      0  01:11       0.000     0.000
  WS02006109              0.50     75.62      0  01:42       0.074     0.000
  WS02006110              0.01     52.63      0  01:11       0.000     0.000
  WS02006111              0.01    167.27      0  01:11       0.000     0.000
  WS02006112              0.01    276.21      0  01:11       0.002     0.000
  WS02006113              0.01     78.87      0  01:11       0.000     0.000
  WS02006115              0.01    186.86      0  01:11       0.000     0.000
  WS02006116              0.01     51.38      0  01:11       0.000     0.000
  WS02006230              1.73    467.75      0  01:42       1.931     0.000
  WS02006231              0.01     99.42      0  01:09       0.000     0.000
  WS02006232              0.55      5.57      0  01:11       0.000     0.000
  WS02006234              1.80     84.35      0  02:26       0.371     0.000
  WS02006235              0.01    101.24      0  01:10       0.000     0.000
  WS02006238              0.01      5.45      0  01:29       0.000     0.000
  WS02006239              0.01    337.17      0  01:10       0.001     0.000
  WS02006240              0.01    716.48      0  01:10       0.002     0.000
  WS02006242              1.95    747.18      0  01:10       0.825     0.000
  WS02006243              0.01    705.81      0  01:11       0.004     0.000
  WS02006245              0.01    369.30      0  01:11       0.001     0.000
  WS02006247              0.01    501.35      0  01:11       0.002     0.000
  WS02006248              2.08    536.16      0  01:11       2.377     0.000
  WS02006249              2.71   1260.10      0  01:41       8.248     0.000
  WS02006252              1.37    284.23      0  01:41       0.345     0.000
  WS02006256              0.97    299.86      0  01:20       0.828     0.000
  YS02001580              0.01     54.90      0  01:35       0.000     0.000
  YS02001586              0.36     58.19      0  01:35       0.025     0.000
  YS02001590              0.01      3.59      0  01:14       0.000     0.000
  YS02001600              0.01      1.46      0  01:14       0.000     0.000
  YS02001601              1.59    416.69      0  01:42       1.601     0.000
  YS02001602              0.54     60.61      0  02:23       0.035     0.000
  YS02001605              0.01      0.49      0  02:48       0.000     0.000
  YS02001607              0.01      0.65      0  02:42       0.000     0.000
  YS02001610              0.07     14.62      0  02:22       0.002     0.000
  YS02001613              0.01      1.16      0  02:42       0.000     0.000
  YS02001616              0.01      3.81      0  02:48       0.000     0.000
  YS02001619              0.01      4.97      0  02:48       0.000     0.000
  YS02001622              0.01      1.15      0  02:42       0.000     0.000
  YS02001625              0.01     21.51      0  02:54       0.000     0.000
  YS02001629              0.01     20.42      0  02:54       0.000     0.000
  YS02001633              0.01      0.93      0  02:42       0.000     0.000
  YS02001652              0.01    173.13      0  02:54       0.000     0.000
  YS02001907              0.05     38.28      0  02:23       0.003     0.000
  YS02163301              0.01      0.80      0  02:42       0.000     0.000
  YS02163601              0.01      0.51      0  02:42       0.000     0.000
  YSB1171                 0.01     53.56      0  01:41       0.000     0.000
  
  
  **********************
  Storage Volume Summary
  **********************
  
  --------------------------------------------------------------------------------------------------
                         Average     Avg  Evap Exfil       Maximum     Max    Time of Max    Maximum
                          Volume    Pcnt  Pcnt  Pcnt        Volume    Pcnt     Occurrence    Outflow
  Storage Unit           1000 m3    Full  Loss  Loss       1000 m3    Full    days hr:min        LPS
  --------------------------------------------------------------------------------------------------
  CC-storage               1.255      20     0     0         3.718      58       0  03:05    1783.53
  JK-storage               0.003       1     0     0         0.150      52       0  00:00    2300.00
  XR-storage               0.931      65     0     0         1.111      77       0  08:00     380.00
  
  
  ***********************
  Outfall Loading Summary
  ***********************
  
  -----------------------------------------------------------
                         Flow       Avg       Max       Total
                         Freq      Flow      Flow      Volume
  Outfall Node           Pcnt       LPS       LPS    10^6 ltr
  -----------------------------------------------------------
  CC-1                  63.91    683.00    683.00       7.798
  CC-2                  63.91    683.00    683.00       7.798
  JK-1                  20.43    995.45   1000.00       3.401
  JK-2                  20.43    995.45   1000.00       3.401
  WSC                   99.96    843.89   1441.85      17.642
  -----------------------------------------------------------
  System                53.73   4200.80   1441.85      40.041
  
  
  ********************
  Link Flow Summary
  ********************
  
  -----------------------------------------------------------------------------
                                 Maximum  Time of Max   Maximum    Max/    Max/
                                  |Flow|   Occurrence   |Veloc|    Full    Full
  Link                 Type          LPS  days hr:min     m/sec    Flow   Depth
  -----------------------------------------------------------------------------
  1                    CONDUIT   1441.85     0  02:24      3.66    0.50    0.50
  HS02004478WS02006287 CONDUIT   2087.90     0  02:20      2.90    0.58    1.00
  HS02004479HS02004480 CONDUIT    318.47     0  01:41      0.65    0.31    1.00
  HS02004480HS02004478 CONDUIT   2020.63     0  01:38      2.89    8.51    1.00
  HS02004770HS02004777 CONDUIT    720.47     0  01:37      1.03    1.32    1.00
  HS02004777HS02004785 CONDUIT    726.66     0  01:36      1.10    0.89    1.00
  HS02004785HS02004788 CONDUIT    767.21     0  01:37      1.39    5.78    1.00
  HS02004788HS02004792 CONDUIT    859.59     0  01:38      1.50    0.57    1.00
  HS02004792HS02004799 CONDUIT   1588.04     0  01:38      2.27    0.97    1.00
  HS02004799HS02004480 CONDUIT   1724.39     0  01:38      2.46    2.18    1.00
  HS02004802HS02004478 CONDUIT    402.72     0  03:05      0.76    0.36    1.00
  HS02004807HS02004802 CONDUIT    369.09     0  03:06      0.65    0.70    1.00
  HS02004817HS02004807 CONDUIT    335.86     0  01:38      0.48    0.20    1.00
  HS02004817HS02004824 CONDUIT    336.51     0  01:38      0.56    0.15    1.00
  HS02004824HS02004830 CONDUIT    577.26     0  01:37      0.86    0.76    1.00
  HS02004830HS02004837 CONDUIT    579.19     0  01:38      0.91    0.58    1.00
  HS02004837HS02004842 CONDUIT    715.63     0  01:39      1.02    0.43    1.00
  HS02004842HS02004848 CONDUIT    715.53     0  01:39      1.12    0.42    1.00
  HS02004848HS02004852 CONDUIT    909.82     0  01:39      1.53    1.03    1.00
  HS02004852HS02004856 CONDUIT    899.19     0  01:40      1.43    1.03    1.00
  HS02004856HS02004862 CONDUIT    954.41     0  01:39      1.65    0.95    1.00
  HS02004862HS02004870 CONDUIT   1021.10     0  01:40      1.80    1.10    1.00
  HS02004870HS02004876 CONDUIT   1029.77     0  01:41      1.62    0.68    1.00
  HS02004876HS02004881 CONDUIT   1131.75     0  01:41      2.15   12.04    1.00
  HS02004881HS02006253 CONDUIT   1188.35     0  01:41      2.92    0.23    1.00
  HS02004901HS02004770 CONDUIT    226.21     0  02:21      0.32    0.85    1.00
  WS02001211WS02001212 CONDUIT    289.17     0  01:20      0.54    0.22    0.69
  WS02001212WS02001213 CONDUIT    312.07     0  01:21      1.04    0.48    0.57
  WS02001213WS02003059 CONDUIT    287.30     0  01:19      0.47    0.47    0.89
  WS02003059WS02003060 CONDUIT    332.42     0  01:15      0.65    0.22    0.79
  WS02003060WS02003069 CONDUIT   1439.78     0  02:23      2.24    0.56    0.59
  WS02003066WSF200     CONDUIT   1229.60     0  01:41      3.59    0.21    0.38
  WS02003067WS02003066 CONDUIT   1229.64     0  01:41      1.94    0.39    0.55
  WS02003069WS02003072 CONDUIT   1440.08     0  02:23      1.87    0.69    0.65
  WS02003072WS02003073 CONDUIT   1440.07     0  02:24      2.02    3.11    0.60
  WS02004138WS02004139 CONDUIT    190.00     0  00:32      2.16    0.04    0.42
  WS02004139WS02001211 CONDUIT    328.02     0  01:18      0.54    0.41    0.60
  WS02004401WS02004402 CONDUIT   1229.65     0  01:40      1.57    1.48    1.00
  WS02004402WS02004403 CONDUIT   1230.19     0  01:40      1.57    1.77    1.00
  WS02004403WS02004404 CONDUIT   1230.08     0  01:40      1.57    0.89    1.00
  WS02004404WS02004405 CONDUIT   1230.88     0  01:39      1.57   12.06    1.00
  WS02004405WS02004406 CONDUIT   1231.26     0  01:39      1.57    2.43    1.00
  WS02004406WS02004407 CONDUIT   1231.21     0  01:39      1.97    0.55    0.90
  WS02004407WS02004409 CONDUIT   1287.09     0  01:12      2.40    0.46    0.90
  WS02004409WS02004410 CONDUIT   1304.06     0  01:12      1.86    1.69    1.00
  WS02004410WS02004411 CONDUIT   1251.22     0  01:12      1.84    1.71    1.00
  WS02004411WS02004412 CONDUIT   1229.75     0  01:41      1.76    1.75    1.00
  WS02004412WS02004413 CONDUIT   1229.60     0  01:41      1.67    0.82    1.00
  WS02004413WS02003067 CONDUIT   1229.61     0  01:41      1.93    0.53    0.76
  WS02006109WS02006110 CONDUIT   1260.01     0  01:11      2.51    2.42    1.00
  WS02006110WS02006113 CONDUIT   1260.54     0  01:11      2.51    1.15    1.00
  WS02006111WS02006112 CONDUIT   1134.87     0  01:11      2.28    0.54    1.00
  WS02006112WS02006115 CONDUIT   1234.14     0  01:11      1.57    0.73    1.00
  WS02006113WS02006111 CONDUIT   1265.49     0  01:11      2.79    1.52    1.00
  WS02006115WS02006116 CONDUIT   1229.60     0  01:40      1.57    1.58    1.00
  WS02006116WS02004401 CONDUIT   1229.52     0  01:40      1.57    1.69    1.00
  WS02006228WS02006109 CONDUIT   1258.51     0  01:11      2.50    5.50    1.00
  WS02006229WS02006228 CONDUIT   1259.32     0  01:11      2.51    4.17    1.00
  WS02006230WS02006229 CONDUIT    910.49     0  01:42      2.37   20.26    1.00
  WS02006231WS02006230 CONDUIT    639.42     0  01:09      1.67    9.70    1.00
  WS02006232WS02006231 CONDUIT    616.59     0  01:09      1.60    1.29    1.00
  WS02006234WS02006232 CONDUIT    616.71     0  01:09      1.88    1.25    1.00
  WS02006235WS02006234 CONDUIT    643.02     0  01:09      1.68    6.78    1.00
  WS02006238WS02006235 CONDUIT    674.35     0  01:10      1.97    1.51    1.00
  WS02006239WS02006238 CONDUIT    633.31     0  01:10      1.92    2.03    1.00
  WS02006240WS02006239 CONDUIT    632.38     0  01:10      1.78    1.99    1.00
  WS02006242WS02006240 CONDUIT    508.81     0  01:10      1.33    2.02    1.00
  WS02006243WS02006242 CONDUIT    457.69     0  01:10      1.35    0.98    1.00
  WS02006245WS02006243 CONDUIT    426.33     0  03:57      1.38    1.26    1.00
  WS02006247WS02006245 CONDUIT    426.45     0  03:57      1.37    3.38    1.00
  WS02006248WS02006247 CONDUIT    427.06     0  03:57      1.41    0.93    1.00
  WS02006249WS02006248 CONDUIT    431.37     0  01:11      1.39    2.36    1.00
  WS02006251WS02006249 CONDUIT   1321.05     0  01:41      3.43    3.81    1.00
  WS02006252WS02006251 CONDUIT    409.09     0  01:11      4.83    1.50    1.00
  WS02006253WS02006251 CONDUIT   1204.31     0  01:41      3.13    3.61    1.00
  WS02006256WS02006235 CONDUIT    288.93     0  00:00      4.23    3.06    1.00
  WS02006280WS02006229 CONDUIT   2090.70     0  01:42      5.25    0.45    1.00
  WS02006284WS02006280 CONDUIT   2089.18     0  01:42      3.31    0.87    1.00
  WS02006287WS02006284 CONDUIT   2088.27     0  01:42      3.10    0.97    1.00
  WSF200WS02003060     CONDUIT   1318.27     0  01:14      3.14    0.29    0.49
  YS02001580YS02001583 CONDUIT     73.23     0  01:13      0.56    0.28    1.00
  YS02001583YS02001586 CONDUIT    111.86     0  01:35      0.46    0.17    1.00
  YS02001586YS02001590 CONDUIT    317.91     0  02:30      1.28    0.56    1.00
  YS02001590YS02001593 CONDUIT    317.87     0  02:29      1.12    2.00    1.00
  YS02001593YS02001596 CONDUIT    317.86     0  02:30      1.75    0.50    1.00
  YS02001596YS02001600 CONDUIT    317.88     0  02:29      1.26    0.62    1.00
  YS02001600YS02001601 CONDUIT    317.92     0  02:18      1.12    0.55    1.00
  YS02001601YS02001602 CONDUIT    547.08     0  01:13      1.93    1.98    1.00
  YS02001602YS02001605 CONDUIT    547.17     0  01:13      1.94   11.58    1.00
  YS02001605YS02001607 CONDUIT    547.45     0  01:13      1.94    3.00    1.00
  YS02001607YS02001610 CONDUIT    547.67     0  01:13      0.82    0.52    1.00
  YS02001610YS02001613 CONDUIT    553.00     0  01:13      0.77    0.64    1.00
  YS02001613YS02001616 CONDUIT    562.26     0  01:13      0.83    0.48    1.00
  YS02001616YS02001619 CONDUIT    551.07     0  01:13      0.87    0.96    1.00
  YS02001619YS02001622 CONDUIT    967.36     0  02:18      1.78    1.43    1.00
  YS02001622YS02001625 CONDUIT    966.94     0  02:18      1.23    0.52    1.00
  YS02001625YS02001629 CONDUIT    966.87     0  02:18      1.23    0.46    1.00
  YS02001629YS02163301 CONDUIT    967.27     0  02:18      1.23    1.19    1.00
  YS02001633YS02163601 CONDUIT   1333.11     0  02:18      1.70    1.40    1.00
  YS02001641YS02001644 CONDUIT   1334.03     0  02:18      1.70    4.31    1.00
  YS02001644YS02001647 CONDUIT   1655.87     0  02:19      2.17    0.97    1.00
  YS02001647YS02001649 CONDUIT   1676.71     0  02:19      2.32    0.89    1.00
  YS02001649YS02001757 CONDUIT   1962.96     0  02:19      2.56    1.19    1.00
  YS02001652YS02001649 CONDUIT    399.50     0  02:28      1.36    0.20    1.00
  YS02001655YS02001652 CONDUIT    443.21     0  02:27      1.78    0.22    0.93
  YS02001658YS02001655 CONDUIT    506.96     0  02:47      1.88    0.22    0.63
  YS02001661YS02001658 CONDUIT    322.02     0  01:41      2.16    0.13    0.37
  YS02001664YS02001661 CONDUIT    322.11     0  01:41      1.96    0.10    0.26
  YS02001745YS02001748 CONDUIT    201.48     0  01:40      1.96    0.08    0.26
  YS02001748YS02001751 CONDUIT    295.49     0  02:51      1.63    0.15    0.52
  YS02001751YS02001754 CONDUIT    264.61     0  01:52      1.62    0.13    0.75
  YS02001754YS02001757 CONDUIT    340.75     0  01:50      0.92    0.14    0.96
  YS02001757CaochengTiaoxuchi CONDUIT   2770.99     0  01:46      6.43    1.20    1.00
  YS02001759YS02001757 CONDUIT    686.93     0  01:45      1.21    0.49    1.00
  YS02001762YS02001759 CONDUIT    457.50     0  01:45      0.71    0.53    1.00
  YS02001765YS02001762 CONDUIT    432.22     0  01:45      0.82    0.41    1.00
  YS02001767YS02001765 CONDUIT    430.72     0  01:42      0.92    0.54    1.00
  YS02001770YS02001767 CONDUIT    426.65     0  01:46      0.91    1.69    1.00
  YS02001774YS02001770 CONDUIT     81.80     0  03:08      0.73    0.05    1.00
  YS02001779YS02001774 CONDUIT     61.79     0  02:23      0.21    0.03    0.93
  YS02001783YS02001784 CONDUIT   1138.59     0  02:23      2.27    1.57    1.00
  YS02001784YS02001785 CONDUIT   1139.48     0  02:23      2.27    2.65    1.00
  YS02001786YS02001788 CONDUIT   1140.31     0  02:23      2.44    2.20    0.88
  YS02001788YS02001790 CONDUIT   1148.96     0  02:22      2.69    0.85    0.83
  YS02001790YS02001791 CONDUIT   1259.31     0  02:22      3.40    1.37    0.69
  YS02001791YS02001793 CONDUIT   1221.10     0  02:22      6.37    0.52    0.42
  YS02001793JiankangQianchi CONDUIT   1286.78     0  02:26     23.73    0.10    0.50
  YS02001882YS02001884 CONDUIT     68.89     0  01:11      0.42    0.08    1.00
  YS02001884YS02001887 CONDUIT    124.24     0  01:11      0.36    0.17    1.00
  YS02001887YS02001890 CONDUIT    317.66     0  01:39      0.45    0.54    1.00
  YS02001890YS02001895 CONDUIT    318.26     0  01:39      0.47    0.15    1.00
  YS02001895YS02001898 CONDUIT    308.85     0  01:40      0.70    0.54    1.00
  YS02001898YS02001901 CONDUIT    319.44     0  01:40      0.60    0.21    1.00
  YS02001901YS02001904 CONDUIT    320.33     0  01:40      0.64    0.50    1.00
  YS02001904YS02001907 CONDUIT    321.46     0  01:40      0.41    0.11    1.00
  YS02001907YS02006553 CONDUIT    777.08     0  02:24      0.86    0.91    1.00
  YS02001910YS02001907 CONDUIT    560.05     0  02:23      0.71    0.32    1.00
  YS02001915YS02001910 CONDUIT    560.09     0  02:23      1.14    0.28    1.00
  YS02001918YS02001915 CONDUIT    258.49     0  02:32      0.48    0.14    1.00
  YS02001920YS02001918 CONDUIT    249.53     0  01:49      0.70    0.24    1.00
  YS02001923YS02001920 CONDUIT    242.18     0  01:49      0.79    0.11    1.00
  YS02001926YS02001923 CONDUIT    243.00     0  01:46      0.94    0.35    0.86
  YS02001929YS02001926 CONDUIT    219.05     0  01:45      1.06    0.10    0.75
  YS02006553YS02006556 CONDUIT    777.44     0  02:24      0.99    0.67    1.00
  YS02006556YS02006558 CONDUIT    777.77     0  02:24      0.99    0.61    1.00
  YS02006558YS02006561 CONDUIT   1138.46     0  02:23      4.03    2.52    1.00
  YS02006561YS02001783 CONDUIT   1138.45     0  02:23      2.27    0.59    1.00
  YS02163301YS02001633 CONDUIT    966.94     0  02:18      1.23    0.91    1.00
  YS02163601YS02164001 CONDUIT   1333.24     0  02:18      1.70    1.18    1.00
  YS02164001YS02001641 CONDUIT   1333.79     0  02:18      1.70    1.82    1.00
  YSB1154YSB6556       CONDUIT    167.85     0  01:41      0.44    0.30    1.00
  YSB1171HS02004479    CONDUIT    314.83     0  01:41      0.63    0.21    1.00
  YSB1174YSB1171       CONDUIT    140.05     0  01:40      0.36    0.21    1.00
  YSB6556YSB1171       CONDUIT    172.57     0  01:41      0.45    0.18    1.00
  CC-R1                PUMP       683.00     0  00:00              1.00
  CC-R2                PUMP       683.00     0  00:00              1.00
  CC-S1                PUMP       200.00     0  00:00              1.00
  CC-S2                PUMP       200.00     0  00:00              1.00
  JK-R1                PUMP      1000.00     0  00:00              1.00
  JK-R2                PUMP      1000.00     0  00:00              1.00
  JK-S                 PUMP       300.00     0  00:00              1.00
  XR-1                 PUMP        95.00     0  00:00              1.00
  XR-2                 PUMP        95.00     0  00:00              1.00
  XR-3                 PUMP        95.00     0  00:00              1.00
  XR-4                 PUMP        95.00     0  00:00              1.00
  
  
  ***************************
  Flow Classification Summary
  ***************************
  
  -------------------------------------------------------------------------------------
                      Adjusted    ---------- Fraction of Time in Flow Class ---------- 
                       /Actual         Up    Down  Sub   Sup   Up    Down  Norm  Inlet 
  Conduit               Length    Dry  Dry   Dry   Crit  Crit  Crit  Crit  Ltd   Ctrl  
  -------------------------------------------------------------------------------------
  1                       1.00   0.00  0.00  0.00  0.00  1.00  0.00  0.00  0.47  0.00
  HS02004478WS02006287    1.00   0.12  0.00  0.00  0.71  0.18  0.00  0.00  0.55  0.00
  HS02004479HS02004480    1.00   0.05  0.00  0.00  0.95  0.00  0.00  0.00  0.09  0.00
  HS02004480HS02004478    1.00   0.11  0.00  0.00  0.68  0.00  0.00  0.21  0.00  0.00
  HS02004770HS02004777    1.00   0.00  0.11  0.00  0.89  0.00  0.00  0.00  0.00  0.00
  HS02004777HS02004785    1.00   0.00  0.00  0.00  1.00  0.00  0.00  0.00  0.09  0.00
  HS02004785HS02004788    1.00   0.00  0.00  0.00  1.00  0.00  0.00  0.00  0.00  0.00
  HS02004788HS02004792    1.00   0.00  0.00  0.00  0.99  0.01  0.00  0.00  0.77  0.00
  HS02004792HS02004799    1.00   0.00  0.00  0.00  0.99  0.01  0.00  0.00  0.73  0.00
  HS02004799HS02004480    1.00   0.00  0.05  0.00  0.88  0.00  0.07  0.00  0.00  0.00
  HS02004802HS02004478    1.00   0.11  0.00  0.00  0.88  0.00  0.00  0.00  0.01  0.00
  HS02004807HS02004802    1.00   0.11  0.00  0.00  0.88  0.00  0.00  0.00  0.00  0.00
  HS02004817HS02004807    1.00   0.00  0.11  0.00  0.89  0.00  0.00  0.00  0.01  0.00
  HS02004817HS02004824    1.00   0.00  0.00  0.00  1.00  0.00  0.00  0.00  0.73  0.00
  HS02004824HS02004830    1.00   0.00  0.00  0.00  1.00  0.00  0.00  0.00  0.00  0.00
  HS02004830HS02004837    1.00   0.00  0.00  0.00  1.00  0.00  0.00  0.00  0.73  0.00
  HS02004837HS02004842    1.00   0.00  0.00  0.00  1.00  0.00  0.00  0.00  0.11  0.00
  HS02004842HS02004848    1.00   0.00  0.11  0.00  0.89  0.00  0.00  0.00  0.50  0.00
  HS02004848HS02004852    1.00   0.11  0.00  0.00  0.89  0.00  0.00  0.00  0.62  0.00
  HS02004852HS02004856    1.00   0.11  0.00  0.00  0.88  0.00  0.00  0.00  0.60  0.00
  HS02004856HS02004862    1.00   0.00  0.12  0.00  0.88  0.00  0.00  0.00  0.64  0.00
  HS02004862HS02004870    1.00   0.00  0.00  0.00  1.00  0.00  0.00  0.00  0.01  0.00
  HS02004870HS02004876    1.00   0.00  0.00  0.00  0.97  0.02  0.00  0.00  0.73  0.00
  HS02004876HS02004881    1.00   0.02  0.00  0.00  0.85  0.13  0.00  0.00  0.00  0.00
  HS02004881HS02006253    1.00   0.00  0.07  0.00  0.59  0.02  0.00  0.32  0.15  0.00
  HS02004901HS02004770    1.00   0.11  0.00  0.00  0.89  0.00  0.00  0.00  0.00  0.00
  WS02001211WS02001212    1.00   0.00  0.02  0.00  0.98  0.00  0.00  0.00  0.00  0.00
  WS02001212WS02001213    1.00   0.02  0.00  0.00  0.62  0.00  0.35  0.00  0.00  0.00
  WS02001213WS02003059    1.00   0.00  0.00  0.00  0.99  0.00  0.00  0.00  0.00  0.00
  WS02003059WS02003060    1.00   0.00  0.00  0.00  1.00  0.00  0.00  0.00  0.03  0.00
  WS02003060WS02003069    1.00   0.00  0.00  0.00  0.97  0.03  0.00  0.00  0.46  0.00
  WS02003066WSF200        1.00   0.07  0.00  0.00  0.00  0.93  0.00  0.00  0.59  0.00
  WS02003067WS02003066    1.00   0.06  0.00  0.00  0.93  0.00  0.00  0.00  0.00  0.00
  WS02003069WS02003072    1.00   0.00  0.00  0.00  1.00  0.00  0.00  0.00  0.56  0.00
  WS02003072WS02003073    1.00   0.00  0.00  0.00  0.00  0.00  0.00  1.00  0.00  0.00
  WS02004138WS02004139    1.00   0.00  0.01  0.00  0.97  0.01  0.00  0.01  0.98  0.00
  WS02004139WS02001211    1.00   0.00  0.00  0.00  0.99  0.00  0.00  0.00  0.00  0.00
  WS02004401WS02004402    1.00   0.02  0.00  0.00  0.98  0.00  0.00  0.00  0.00  0.00
  WS02004402WS02004403    1.00   0.02  0.00  0.00  0.97  0.00  0.00  0.00  0.00  0.00
  WS02004403WS02004404    1.00   0.00  0.03  0.00  0.97  0.00  0.00  0.00  0.00  0.00
  WS02004404WS02004405    1.00   0.00  0.00  0.00  1.00  0.00  0.00  0.00  0.01  0.00
  WS02004405WS02004406    1.00   0.00  0.00  0.00  1.00  0.00  0.00  0.00  0.00  0.00
  WS02004406WS02004407    1.00   0.00  0.05  0.00  0.95  0.00  0.00  0.00  0.00  0.00
  WS02004407WS02004409    1.00   0.05  0.00  0.00  0.94  0.02  0.00  0.00  0.71  0.00
  WS02004409WS02004410    1.00   0.05  0.00  0.00  0.95  0.00  0.00  0.00  0.00  0.00
  WS02004410WS02004411    1.00   0.05  0.00  0.00  0.95  0.00  0.00  0.00  0.00  0.00
  WS02004411WS02004412    1.00   0.05  0.00  0.00  0.95  0.00  0.00  0.00  0.00  0.00
  WS02004412WS02004413    1.00   0.05  0.00  0.00  0.94  0.00  0.00  0.00  0.00  0.00
  WS02004413WS02003067    1.00   0.05  0.01  0.00  0.00  0.00  0.94  0.00  0.00  0.00
  WS02006109WS02006110    1.00   0.00  0.01  0.00  0.99  0.00  0.01  0.00  0.00  0.00
  WS02006110WS02006113    1.00   0.01  0.01  0.00  0.99  0.00  0.00  0.00  0.00  0.00
  WS02006111WS02006112    1.00   0.02  0.00  0.00  0.98  0.00  0.00  0.00  0.67  0.00
  WS02006112WS02006115    1.00   0.02  0.00  0.00  0.97  0.00  0.01  0.00  0.00  0.00
  WS02006113WS02006111    1.00   0.01  0.00  0.00  0.48  0.50  0.00  0.00  0.07  0.00
  WS02006115WS02006116    1.00   0.02  0.00  0.00  0.97  0.00  0.00  0.01  0.00  0.00
  WS02006116WS02004401    1.00   0.02  0.00  0.00  0.98  0.00  0.00  0.00  0.00  0.00
  WS02006228WS02006109    1.00   0.00  0.00  0.00  1.00  0.00  0.00  0.00  0.00  0.00
  WS02006229WS02006228    1.00   0.00  0.00  0.00  0.99  0.00  0.00  0.01  0.00  0.00
  WS02006230WS02006229    1.00   0.00  0.00  0.00  0.99  0.00  0.00  0.01  0.03  0.00
  WS02006231WS02006230    1.00   0.00  0.00  0.00  0.66  0.00  0.34  0.00  0.00  0.00
  WS02006232WS02006231    1.00   0.00  0.00  0.00  0.99  0.00  0.00  0.00  0.00  0.00
  WS02006234WS02006232    1.00   0.00  0.00  0.00  1.00  0.00  0.00  0.00  0.04  0.00
  WS02006235WS02006234    1.00   0.00  0.00  0.00  0.91  0.00  0.09  0.00  0.00  0.00
  WS02006238WS02006235    1.00   0.00  0.00  0.00  1.00  0.00  0.00  0.00  0.00  0.00
  WS02006239WS02006238    1.00   0.00  0.00  0.00  1.00  0.00  0.00  0.00  0.17  0.00
  WS02006240WS02006239    1.00   0.00  0.00  0.00  0.81  0.00  0.00  0.18  0.03  0.00
  WS02006242WS02006240    1.00   0.00  0.00  0.00  0.99  0.00  0.01  0.00  0.00  0.00
  WS02006243WS02006242    1.00   0.00  0.00  0.00  0.99  0.00  0.00  0.01  0.55  0.00
  WS02006245WS02006243    1.00   0.00  0.00  0.00  0.95  0.00  0.00  0.05  0.00  0.00
  WS02006247WS02006245    1.00   0.00  0.00  0.00  0.99  0.00  0.00  0.01  0.00  0.00
  WS02006248WS02006247    1.00   0.00  0.00  0.00  0.99  0.00  0.00  0.01  0.55  0.00
  WS02006249WS02006248    1.00   0.00  0.00  0.00  0.70  0.00  0.30  0.00  0.00  0.00
  WS02006251WS02006249    1.00   0.00  0.00  0.00  1.00  0.00  0.00  0.00  0.55  0.00
  WS02006252WS02006251    1.00   0.00  0.28  0.00  0.58  0.00  0.14  0.00  0.00  0.00
  WS02006253WS02006251    1.00   0.00  0.00  0.00  0.99  0.00  0.01  0.00  0.00  0.00
  WS02006256WS02006235    1.00   0.00  0.00  0.00  0.99  0.01  0.00  0.00  0.00  0.00
  WS02006280WS02006229    1.00   0.12  0.00  0.00  0.44  0.03  0.00  0.40  0.01  0.00
  WS02006284WS02006280    1.00   0.12  0.00  0.00  0.42  0.02  0.00  0.44  0.00  0.00
  WS02006287WS02006284    1.00   0.10  0.01  0.00  0.63  0.24  0.00  0.01  0.61  0.00
  WSF200WS02003060        1.00   0.00  0.07  0.00  0.32  0.61  0.00  0.00  0.55  0.00
  YS02001580YS02001583    1.00   0.14  0.30  0.00  0.57  0.00  0.00  0.00  0.62  0.00
  YS02001583YS02001586    1.00   0.24  0.15  0.00  0.61  0.00  0.01  0.00  0.63  0.00
  YS02001586YS02001590    1.00   0.11  0.00  0.00  0.69  0.02  0.00  0.18  0.27  0.00
  YS02001590YS02001593    1.00   0.11  0.00  0.00  0.45  0.00  0.43  0.00  0.00  0.00
  YS02001593YS02001596    1.00   0.12  0.00  0.00  0.46  0.01  0.00  0.42  0.01  0.00
  YS02001596YS02001600    1.00   0.12  0.00  0.00  0.50  0.01  0.00  0.37  0.02  0.00
  YS02001600YS02001601    1.00   0.11  0.00  0.00  0.88  0.00  0.00  0.00  0.53  0.00
  YS02001601YS02001602    1.00   0.11  0.00  0.00  0.89  0.00  0.00  0.00  0.00  0.00
  YS02001602YS02001605    1.00   0.12  0.00  0.00  0.88  0.00  0.00  0.00  0.00  0.00
  YS02001605YS02001607    1.00   0.12  0.00  0.00  0.88  0.00  0.00  0.00  0.00  0.00
  YS02001607YS02001610    1.00   0.12  0.00  0.00  0.88  0.00  0.00  0.00  0.00  0.00
  YS02001610YS02001613    1.00   0.11  0.00  0.00  0.89  0.00  0.00  0.00  0.00  0.00
  YS02001613YS02001616    1.00   0.11  0.00  0.00  0.89  0.00  0.00  0.00  0.00  0.00
  YS02001616YS02001619    1.00   0.11  0.00  0.00  0.89  0.00  0.00  0.00  0.00  0.00
  YS02001619YS02001622    1.00   0.11  0.00  0.00  0.88  0.01  0.00  0.00  0.26  0.00
  YS02001622YS02001625    1.00   0.11  0.00  0.00  0.88  0.00  0.00  0.00  0.01  0.00
  YS02001625YS02001629    1.00   0.11  0.01  0.00  0.47  0.00  0.41  0.00  0.00  0.00
  YS02001629YS02163301    1.00   0.12  0.00  0.00  0.88  0.00  0.00  0.00  0.00  0.00
  YS02001633YS02163601    1.00   0.00  0.00  0.00  1.00  0.00  0.00  0.00  0.12  0.00
  YS02001641YS02001644    1.00   0.00  0.00  0.00  1.00  0.00  0.00  0.00  0.00  0.00
  YS02001644YS02001647    1.00   0.00  0.12  0.00  0.88  0.00  0.00  0.00  0.00  0.00
  YS02001647YS02001649    1.00   0.00  0.12  0.00  0.63  0.25  0.00  0.00  0.53  0.00
  YS02001649YS02001757    1.00   0.00  0.00  0.00  0.76  0.24  0.00  0.00  0.64  0.00
  YS02001652YS02001649    1.00   0.00  0.00  0.00  0.99  0.01  0.00  0.00  0.67  0.00
  YS02001655YS02001652    1.00   0.00  0.00  0.00  0.49  0.01  0.00  0.50  0.06  0.00
  YS02001658YS02001655    1.00   0.00  0.12  0.00  0.65  0.23  0.00  0.00  0.72  0.00
  YS02001661YS02001658    1.00   0.12  0.00  0.00  0.28  0.60  0.00  0.00  0.73  0.00
  YS02001664YS02001661    1.00   0.11  0.00  0.00  0.42  0.46  0.00  0.00  0.87  0.00
  YS02001745YS02001748    1.00   0.00  0.00  0.00  0.06  0.07  0.00  0.87  0.07  0.00
  YS02001748YS02001751    1.00   0.00  0.00  0.00  0.73  0.27  0.00  0.00  0.79  0.00
  YS02001751YS02001754    1.00   0.00  0.00  0.00  0.46  0.00  0.00  0.54  0.07  0.00
  YS02001754YS02001757    1.00   0.00  0.00  0.00  1.00  0.00  0.00  0.00  0.73  0.00
  YS02001757CaochengTiaoxuchi    1.00   0.00  0.00  0.00  0.39  0.61  0.00  0.00  0.27  0.00
  YS02001759YS02001757    1.00   0.00  0.00  0.00  1.00  0.00  0.00  0.00  0.59  0.00
  YS02001762YS02001759    1.00   0.00  0.00  0.00  1.00  0.00  0.00  0.00  0.04  0.00
  YS02001765YS02001762    1.00   0.00  0.00  0.00  1.00  0.00  0.00  0.00  0.67  0.00
  YS02001767YS02001765    1.00   0.00  0.00  0.00  1.00  0.00  0.00  0.00  0.00  0.00
  YS02001770YS02001767    1.00   0.00  0.00  0.00  1.00  0.00  0.00  0.00  0.01  0.00
  YS02001774YS02001770    1.00   0.00  0.11  0.00  0.81  0.00  0.07  0.00  0.00  0.00
  YS02001779YS02001774    1.00   0.00  0.00  0.00  1.00  0.00  0.00  0.00  0.71  0.00
  YS02001783YS02001784    1.00   0.00  0.12  0.00  0.88  0.00  0.00  0.00  0.53  0.00
  YS02001784YS02001785    1.00   0.00  0.00  0.00  1.00  0.00  0.00  0.00  0.12  0.00
  YS02001786YS02001788    1.00   0.00  0.00  0.00  0.67  0.33  0.00  0.00  0.00  0.00
  YS02001788YS02001790    1.00   0.00  0.00  0.00  0.16  0.84  0.00  0.00  0.73  0.00
  YS02001790YS02001791    1.00   0.00  0.00  0.00  0.01  0.99  0.00  0.00  0.12  0.00
  YS02001791YS02001793    1.00   0.00  0.00  0.00  0.00  1.00  0.00  0.00  0.01  0.00
  YS02001793JiankangQianchi    1.00   0.00  0.00  0.00  0.10  0.90  0.00  0.00  0.55  0.00
  YS02001882YS02001884    1.00   0.12  0.00  0.00  0.88  0.00  0.00  0.00  0.00  0.00
  YS02001884YS02001887    1.00   0.08  0.03  0.00  0.89  0.00  0.00  0.00  0.00  0.00
  YS02001887YS02001890    1.00   0.00  0.00  0.00  0.96  0.00  0.03  0.00  0.00  0.00
  YS02001890YS02001895    1.00   0.00  0.11  0.00  0.88  0.00  0.00  0.00  0.00  0.00
  YS02001895YS02001898    1.00   0.12  0.00  0.00  0.88  0.00  0.00  0.00  0.00  0.00
  YS02001898YS02001901    1.00   0.12  0.00  0.00  0.88  0.00  0.00  0.00  0.00  0.00
  YS02001901YS02001904    1.00   0.12  0.00  0.00  0.88  0.00  0.00  0.00  0.00  0.00
  YS02001904YS02001907    1.00   0.00  0.12  0.00  0.88  0.00  0.00  0.00  0.00  0.00
  YS02001907YS02006553    1.00   0.00  0.02  0.00  0.98  0.00  0.00  0.00  0.00  0.00
  YS02001910YS02001907    1.00   0.00  0.00  0.00  0.97  0.01  0.00  0.03  0.10  0.00
  YS02001915YS02001910    1.00   0.00  0.00  0.00  0.98  0.02  0.00  0.00  0.11  0.00
  YS02001918YS02001915    1.00   0.00  0.00  0.00  0.97  0.02  0.00  0.00  0.62  0.00
  YS02001920YS02001918    1.00   0.00  0.00  0.00  1.00  0.00  0.00  0.00  0.00  0.00
  YS02001923YS02001920    1.00   0.00  0.00  0.00  1.00  0.00  0.00  0.00  0.80  0.00
  YS02001926YS02001923    1.00   0.00  0.09  0.00  0.19  0.00  0.72  0.00  0.00  0.00
  YS02001929YS02001926    1.00   0.00  0.11  0.00  0.88  0.00  0.00  0.00  0.81  0.00
  YS02006553YS02006556    1.00   0.01  0.00  0.00  0.99  0.00  0.00  0.00  0.03  0.00
  YS02006556YS02006558    1.00   0.00  0.00  0.00  1.00  0.00  0.00  0.00  0.00  0.00
  YS02006558YS02006561    1.00   0.12  0.00  0.00  0.12  0.76  0.00  0.00  0.13  0.00
  YS02006561YS02001783    1.00   0.12  0.00  0.00  0.40  0.49  0.00  0.00  0.60  0.00
  YS02163301YS02001633    1.00   0.00  0.12  0.00  0.88  0.00  0.00  0.00  0.00  0.00
  YS02163601YS02164001    1.00   0.00  0.09  0.00  0.91  0.00  0.00  0.00  0.00  0.00
  YS02164001YS02001641    1.00   0.01  0.09  0.00  0.91  0.00  0.00  0.00  0.05  0.00
  YSB1154YSB6556          1.00   0.11  0.00  0.00  0.89  0.00  0.00  0.00  0.00  0.00
  YSB1171HS02004479       1.00   0.05  0.00  0.00  0.93  0.00  0.00  0.02  0.08  0.00
  YSB1174YSB1171          1.00   0.07  0.03  0.00  0.90  0.00  0.00  0.00  0.00  0.00
  YSB6556YSB1171          1.00   0.05  0.06  0.00  0.89  0.00  0.00  0.00  0.00  0.00
  
  
  *************************
  Conduit Surcharge Summary
  *************************
  
  ----------------------------------------------------------------------------
                                                           Hours        Hours 
                         --------- Hours Full --------   Above Full   Capacity
  Conduit                Both Ends  Upstream  Dnstream   Normal Flow   Limited
  ----------------------------------------------------------------------------
  HS02004478WS02006287        1.38      1.38      1.67      0.01         0.01
  HS02004479HS02004480        1.71      1.71      1.75      0.01         0.01
  HS02004480HS02004478        1.58      1.70      1.58      2.30         1.58
  HS02004770HS02004777        1.53      1.53      1.54      1.14         0.85
  HS02004777HS02004785        1.40      1.40      1.54      0.01         0.01
  HS02004785HS02004788        1.39      1.40      1.39      2.16         1.39
  HS02004788HS02004792        1.39      1.39      1.64      0.01         0.01
  HS02004792HS02004799        1.64      1.64      1.82      0.01         0.01
  HS02004799HS02004480        1.70      1.70      1.82      1.92         0.01
  HS02004802HS02004478        1.59      1.59      1.71      0.01         0.01
  HS02004807HS02004802        1.66      1.66      1.69      0.01         0.01
  HS02004817HS02004807        1.66      1.66      2.11      0.01         0.01
  HS02004817HS02004824        1.39      1.39      2.11      0.01         0.01
  HS02004824HS02004830        1.38      1.38      1.40      0.01         0.01
  HS02004830HS02004837        0.73      0.73      1.38      0.01         0.01
  HS02004837HS02004842        0.73      0.73      1.54      0.01         0.01
  HS02004842HS02004848        0.58      0.58      1.54      0.01         0.01
  HS02004848HS02004852        0.58      0.58      0.86      0.02         0.01
  HS02004852HS02004856        0.86      0.86      1.29      0.01         0.01
  HS02004856HS02004862        0.71      0.71      1.35      0.01         0.01
  HS02004862HS02004870        1.35      1.35      1.37      0.01         0.01
  HS02004870HS02004876        1.37      1.37      1.42      0.01         0.01
  HS02004876HS02004881        1.40      1.42      1.40      2.21         1.40
  HS02004881HS02006253        1.40      1.40      2.77      0.01         0.01
  HS02004901HS02004770        1.53      1.53      1.54      0.01         0.09
  WS02003072WS02003073        0.01      0.01      0.01      3.14         0.01
  WS02004401WS02004402        2.29      2.29      2.33      2.15         2.10
  WS02004402WS02004403        2.33      2.33      2.33      2.30         2.27
  WS02004403WS02004404        2.33      2.33      2.51      0.01         0.01
  WS02004404WS02004405        2.46      2.51      2.46      3.71         2.46
  WS02004405WS02004406        2.43      2.46      2.43      2.83         2.42
  WS02004406WS02004407        0.01      0.01      2.43      0.01         0.01
  WS02004407WS02004409        0.01      0.01      1.95      0.01         0.01
  WS02004409WS02004410        1.94      1.95      1.94      2.19         1.94
  WS02004410WS02004411        1.93      1.94      1.93      2.25         1.93
  WS02004411WS02004412        1.77      1.93      1.77      2.28         1.77
  WS02004412WS02004413        1.77      1.77      2.07      0.01         0.01
  WS02004413WS02003067        0.01      0.01      2.07      0.01         0.01
  WS02006109WS02006110        2.79      2.79      3.08      2.81         0.01
  WS02006110WS02006113        2.06      2.06      3.04      1.55         0.01
  WS02006111WS02006112        2.04      2.04      3.15      0.01         0.01
  WS02006112WS02006115        2.20      2.20      2.85      0.01         0.01
  WS02006113WS02006111        2.05      2.06      2.05      2.15         2.05
  WS02006115WS02006116        2.21      2.21      2.21      2.21         2.17
  WS02006116WS02004401        2.28      2.28      2.29      2.28         2.24
  WS02006228WS02006109        2.98      3.07      2.98      3.35         2.98
  WS02006229WS02006228        2.96      3.02      2.96      3.23         2.96
  WS02006230WS02006229        3.15      3.18      3.15      3.92         1.08
  WS02006231WS02006230        2.56      2.56      2.81      3.62         2.04
  WS02006232WS02006231        2.80      2.80      3.03      0.03         0.37
  WS02006234WS02006232        2.83      2.83      3.03      0.02         0.04
  WS02006235WS02006234        2.81      2.82      2.91      3.44         1.98
  WS02006238WS02006235        2.93      2.93      3.02      0.01         0.34
  WS02006239WS02006238        2.95      3.00      2.95      2.82         0.78
  WS02006240WS02006239        2.91      2.93      2.91      2.80         0.72
  WS02006242WS02006240        2.91      2.92      3.06      2.98         1.76
  WS02006243WS02006242        2.94      2.94      3.03      0.01         0.02
  WS02006245WS02006243        2.92      2.93      2.92      0.91         0.69
  WS02006247WS02006245        2.92      2.96      2.92      3.27         0.88
  WS02006248WS02006247        2.91      2.91      2.95      0.01         0.07
  WS02006249WS02006248        2.90      2.90      2.93      1.19         0.01
  WS02006251WS02006249        2.92      2.93      2.93      3.15         2.91
  WS02006252WS02006251        3.17      3.17      3.17      2.92         0.01
  WS02006253WS02006251        2.93      2.93      2.96      1.89         0.01
  WS02006256WS02006235        3.47      3.51      6.49      0.11         0.20
  WS02006280WS02006229        1.82      1.82      1.97      0.01         0.01
  WS02006284WS02006280        1.71      1.71      1.81      0.01         0.01
  WS02006287WS02006284        1.57      1.57      1.72      0.01         0.01
  YS02001580YS02001583        1.44      1.44      1.49      0.01         0.01
  YS02001583YS02001586        1.44      1.44      1.69      0.01         0.01
  YS02001586YS02001590        1.71      1.71      1.84      0.01         0.01
  YS02001590YS02001593        1.84      1.84      1.88      1.87         0.01
  YS02001593YS02001596        1.87      1.87      2.02      0.01         0.01
  YS02001596YS02001600        2.04      2.04      2.08      0.01         0.01
  YS02001600YS02001601        2.11      2.11      2.26      0.01         0.01
  YS02001601YS02001602        2.20      2.20      2.28      2.10         0.01
  YS02001602YS02001605        2.17      2.17      2.20      2.81         0.01
  YS02001605YS02001607        2.15      2.17      2.15      2.23         2.15
  YS02001607YS02001610        1.72      1.72      1.76      0.01         0.01
  YS02001610YS02001613        1.70      1.70      1.76      0.01         0.01
  YS02001613YS02001616        1.63      1.63      1.70      0.01         0.01
  YS02001616YS02001619        1.60      1.60      1.63      0.01         0.01
  YS02001619YS02001622        1.59      1.60      1.59      1.96         1.57
  YS02001622YS02001625        1.59      1.59      1.96      0.01         0.01
  YS02001625YS02001629        1.46      1.46      1.96      0.01         0.01
  YS02001629YS02163301        1.95      1.95      1.96      1.65         1.50
  YS02001633YS02163601        1.96      1.96      1.98      1.72         1.70
  YS02001641YS02001644        1.66      1.76      1.66      2.29         1.66
  YS02001644YS02001647        0.40      0.40      1.66      0.01         0.01
  YS02001647YS02001649        0.40      0.40      0.79      0.01         0.01
  YS02001649YS02001757        0.73      0.79      0.74      1.22         0.45
  YS02001652YS02001649        0.12      0.12      0.79      0.01         0.01
  YS02001655YS02001652        0.01      0.01      0.06      0.01         0.01
  YS02001754YS02001757        0.01      0.01      0.74      0.01         0.01
  YS02001757CaochengTiaoxuchi        0.57      0.74      0.94      0.95         0.09
  YS02001759YS02001757        0.41      0.41      0.74      0.01         0.01
  YS02001762YS02001759        0.27      0.27      0.41      0.01         0.01
  YS02001765YS02001762        0.14      0.14      0.27      0.01         0.01
  YS02001767YS02001765        0.06      0.06      0.14      0.01         0.01
  YS02001770YS02001767        0.05      0.09      0.06      1.60         0.03
  YS02001774YS02001770        0.01      0.01      0.27      0.01         0.01
  YS02001779YS02001774        0.01      0.01      0.27      0.01         0.01
  YS02001783YS02001784        1.24      1.40      1.24      1.75         1.24
  YS02001784YS02001785        0.34      1.24      0.34      2.00         0.34
  YS02001786YS02001788        0.01      0.34      0.01      1.96         0.01
  YS02001790YS02001791        0.01      0.01      0.01      1.06         0.01
  YS02001882YS02001884        0.75      0.75      0.88      0.01         0.01
  YS02001884YS02001887        1.21      1.21      1.37      0.01         0.01
  YS02001887YS02001890        1.42      1.42      1.46      0.01         0.01
  YS02001890YS02001895        0.68      0.68      1.52      0.01         0.01
  YS02001895YS02001898        0.64      0.64      0.68      0.01         0.01
  YS02001898YS02001901        0.70      0.70      1.20      0.01         0.01
  YS02001901YS02001904        1.05      1.05      1.20      0.01         0.01
  YS02001904YS02001907        1.05      1.05      1.95      0.01         0.01
  YS02001907YS02006553        2.00      2.00      2.03      0.01         0.01
  YS02001910YS02001907        1.52      1.52      1.89      0.01         0.01
  YS02001915YS02001910        0.78      0.78      1.52      0.01         0.01
  YS02001918YS02001915        0.26      0.26      0.78      0.01         0.01
  YS02001920YS02001918        0.26      0.26      0.33      0.01         0.01
  YS02001923YS02001920        0.07      0.07      0.33      0.01         0.01
  YS02006553YS02006556        1.70      1.70      1.94      0.01         0.01
  YS02006556YS02006558        1.82      1.82      1.96      0.01         0.01
  YS02006558YS02006561        0.43      1.68      0.43      1.98         0.43
  YS02006561YS02001783        0.10      0.10      1.40      0.01         0.01
  YS02163301YS02001633        1.96      1.96      1.98      0.01         0.07
  YS02163601YS02164001        1.79      1.79      1.98      1.45         0.01
  YS02164001YS02001641        1.76      1.79      1.76      2.01         1.76
  YSB1154YSB6556              1.79      1.79      2.00      0.01         0.01
  YSB1171HS02004479           1.64      1.64      2.01      0.01         0.01
  YSB1174YSB1171              1.88      1.88      2.07      0.01         0.01
  YSB6556YSB1171              1.79      1.79      2.12      0.01         0.01
  
  
  ***************
  Pumping Summary
  ***************
  
  ---------------------------------------------------------------------------------------------------------
                                                  Min       Avg       Max     Total     Power    % Time Off
                        Percent   Number of      Flow      Flow      Flow    Volume     Usage    Pump Curve
  Pump                 Utilized   Start-Ups       LPS       LPS       LPS  10^6 ltr     Kw-hr    Low   High
  ---------------------------------------------------------------------------------------------------------
  CC-R1                   39.64           3      0.00    683.00    683.00     7.798    130.90    0.0   70.5
  CC-R2                   39.64           3      0.00    683.00    683.00     7.798    130.90    0.0   70.5
  CC-S1                   39.64           3      0.00    200.00    200.00     2.283     19.82    0.0   27.7
  CC-S2                   39.64           3      0.00    200.00    200.00     2.283     19.82    0.0   27.7
  JK-R1                   12.14         589      0.00    995.45   1000.00     3.458      8.32    0.0    0.0
  JK-R2                   12.14         589      0.00    995.45   1000.00     3.458      8.32    0.0    0.0
  JK-S                    12.14         589      0.00    299.91    300.00     1.048     23.97    0.0    0.0
  XR-1                    97.91           2      0.00     95.00     95.00     2.679      9.63    0.0    0.0
  XR-2                    93.94           2      0.00     95.00     95.00     2.570      8.78    0.0    0.0
  XR-3                     0.00           1      0.00     95.00     95.00     0.000      0.00    0.0    0.0
  XR-4                     0.00           1      0.00     95.00     95.00     0.000      0.00    0.0    0.0
  

  Analysis begun on:  Mon Jul 24 17:13:57 2023
  Analysis ended on:  Mon Jul 24 17:14:17 2023
  Total elapsed time: 00:00:20