
  OWA STORM WATER MANAGEMENT MODEL - VERSION v5.1.14 (OWA 2022-07-31)
  --------------------------------------------------------------

  WARNING 04: minimum elevation drop used for Conduit WS02004404WS02004405
  WARNING 03: negative offset ignored for Link YS02001904YS02001907
  
  *********************************************************
  NOTE: The summary statistics displayed in this report are
  based on results found at every computational time step,  
  not just on results from each reporting time step.
  *********************************************************
  
  ****************
  Analysis Options
  ****************
  Flow Units ............... LPS
  Process Models:
    Rainfall/Runoff ........ YES
    RDII ................... NO
    Snowmelt ............... NO
    Groundwater ............ NO
    Flow Routing ........... YES
    Ponding Allowed ........ NO
    Water Quality .......... NO
  Infiltration Method ...... HORTON
  Flow Routing Method ...... DYNWAVE
  Surcharge Method ......... EXTRAN
  Starting Date ............ 08/28/2015 08:00:00
  Ending Date .............. 08/28/2015 16:00:00
  Antecedent Dry Days ...... 8.0
  Report Time Step ......... 00:01:00
  Wet Time Step ............ 00:01:00
  Dry Time Step ............ 00:01:00
  Routing Time Step ........ 30.00 sec
  Variable Time Step ....... YES
  Maximum Trials ........... 8
  Number of Threads ........ 4
  Head Tolerance ........... 0.001500 m
  
  
  **************************        Volume         Depth
  Runoff Quantity Continuity     hectare-m            mm
  **************************     ---------       -------
  Total Precipitation ......         2.643        43.630
  Evaporation Loss .........         0.000         0.000
  Infiltration Loss ........         0.239         3.951
  Surface Runoff ...........         2.343        38.676
  Final Storage ............         0.061         1.007
  Continuity Error (%) .....        -0.010
  
  
  **************************        Volume        Volume
  Flow Routing Continuity        hectare-m      10^6 ltr
  **************************     ---------     ---------
  Dry Weather Inflow .......         0.630         6.296
  Wet Weather Inflow .......         2.342        23.422
  Groundwater Inflow .......         0.000         0.000
  RDII Inflow ..............         0.000         0.000
  External Inflow ..........         0.105         1.045
  External Outflow .........         2.995        29.952
  Flooding Loss ............         0.289         2.885
  Evaporation Loss .........         0.000         0.000
  Exfiltration Loss ........         0.000         0.000
  Initial Stored Volume ....         0.303         3.031
  Final Stored Volume ......         0.179         1.793
  Continuity Error (%) .....        -2.478
  
  
  *************************
  Highest Continuity Errors
  *************************
  Node JK-storage (-16.18%)
  Node HS02004842 (7.23%)
  Node YS02001774 (4.25%)
  Node YS02001884 (2.27%)
  Node YS02001583 (-2.06%)
  
  
  ***************************
  Time-Step Critical Elements
  ***************************
  Link WS02006280WS02006229 (38.24%)
  Link YS02001793JiankangQianchi (25.58%)
  Link WS02006238WS02006235 (13.65%)
  Link YS02006556YS02006558 (6.38%)
  Link WS02003066WSF200 (3.41%)
  
  
  ********************************
  Highest Flow Instability Indexes
  ********************************
  Link WS02004404WS02004405 (40)
  Link WS02006116WS02004401 (40)
  Link WS02004401WS02004402 (39)
  Link WS02006115WS02006116 (37)
  Link WS02004403WS02004404 (37)
  
  
  *************************
  Routing Time Step Summary
  *************************
  Minimum Time Step           :     0.00 sec
  Average Time Step           :     2.40 sec
  Maximum Time Step           :     6.46 sec
  Percent in Steady State     :    -0.00
  Average Iterations per Step :     4.95
  Percent Not Converging      :    43.93
  
  
  ***************************
  Subcatchment Runoff Summary
  ***************************
  
  ------------------------------------------------------------------------------------------------------------------------------
                            Total      Total      Total      Total     Imperv       Perv      Total       Total     Peak  Runoff
                           Precip      Runon       Evap      Infil     Runoff     Runoff     Runoff      Runoff   Runoff   Coeff
  Subcatchment                 mm         mm         mm         mm         mm         mm         mm    10^6 ltr      LPS
  ------------------------------------------------------------------------------------------------------------------------------
  sub0                      28.19       0.00       0.00       1.03      24.96       0.95      25.90        0.02     4.06   0.919
  sub1                      28.19       0.00       0.00       1.73      23.84       1.37      25.21        0.17    28.97   0.894
  sub2                      28.19       0.00       0.00       7.06      16.85       3.37      20.23        0.19    30.67   0.717
  sub3                      28.19       0.00       0.00       7.42      16.81       3.01      19.82        0.45    70.95   0.703
  sub4                      28.19       0.00       0.00       1.88      23.68       1.22      24.90        0.52    84.59   0.883
  sub5                      28.19       0.00       0.00       1.07      24.91       0.90      25.81        0.29    51.41   0.915
  sub7                      28.19       0.00       0.00       1.36      24.40       1.18      25.58        0.09    15.97   0.907
  sub8                      28.19       0.00       0.00       1.37      24.39       1.16      25.56        0.16    29.68   0.906
  sub9                      28.19       0.00       0.00       1.38      24.39       1.16      25.55        0.12    22.24   0.906
  sub10                     28.19       0.00       0.00       1.23      24.65       1.03      25.67        0.28    50.27   0.911
  sub11                     28.19       0.00       0.00       1.21      24.66       1.04      25.71        0.30    54.87   0.912
  sub12                     28.19       0.00       0.00       1.97      23.34       1.70      25.04        0.22    40.80   0.888
  sub14                     28.19       0.00       0.00       1.38      24.39       1.16      25.55        0.24    43.83   0.906
  sub15                     28.19       0.00       0.00       5.19      18.76       3.27      22.02        0.38    64.25   0.781
  sub16                     28.19       0.00       0.00       5.46      17.97       3.84      21.82        0.23    39.87   0.774
  sub17                     28.19       0.00       0.00       5.32      18.24       3.71      21.94        0.19    32.71   0.778
  sub22                     28.19       0.00       0.00       7.73      15.28       4.39      19.67        1.24   209.45   0.698
  sub23                     28.19       0.00       0.00       6.41      16.89       4.02      20.91        1.00   170.86   0.742
  sub60                     56.39       0.00       0.00       1.90      48.41       4.87      53.27        0.70   133.67   0.945
  sub61                     56.39       0.00       0.00       2.76      45.66       6.83      52.49        0.96   183.26   0.931
  sub62                     56.39       0.00       0.00       1.27      50.58       3.24      53.82        1.47   276.36   0.955
  sub63                     56.39       0.00       0.00       5.06      39.06      11.29      50.35        1.14   206.58   0.893
  sub64                     56.39       0.00       0.00       2.56      46.71       5.89      52.61        1.26   229.35   0.933
  sub65                     56.39       0.00       0.00       2.22      47.79       5.11      52.91        1.46   261.30   0.938
  sub66                     56.39       0.00       0.00       6.11      38.95      10.24      49.19        2.29   371.01   0.872
  sub67                     56.39       0.00       0.00       1.22      50.62       3.30      53.92        1.00   192.88   0.956
  sub68                     56.39       0.00       0.00       2.28      47.30       5.61      52.91        1.46   274.41   0.938
  sub69                     56.39       0.00       0.00       2.05      47.81       6.41      54.22        2.01   356.03   0.962
  sub70                     56.39       0.00       0.00       6.53      37.04      12.64      49.68        1.44   222.24   0.881
  sub71                     56.39       0.00       0.00       1.30      50.54       3.21      53.75        1.41   254.81   0.953
  sub72                     56.39       0.00       0.00       1.16      51.03       2.79      53.82        0.74   127.88   0.954
  
  
  ******************
  Node Depth Summary
  ******************
  
  ---------------------------------------------------------------------------------
                                 Average  Maximum  Maximum  Time of Max    Reported
                                   Depth    Depth      HGL   Occurrence   Max Depth
  Node                 Type       Meters   Meters   Meters  days hr:min      Meters
  ---------------------------------------------------------------------------------
  HS02004478           JUNCTION     0.14     0.32     9.54     0  02:07        0.32
  HS02004479           JUNCTION     0.22     0.45     9.66     0  02:07        0.45
  HS02004480           JUNCTION     0.19     0.42     9.66     0  02:07        0.42
  HS02004770           JUNCTION     0.20     0.39    10.22     0  02:07        0.39
  HS02004777           JUNCTION     0.22     0.41    10.21     0  02:07        0.41
  HS02004785           JUNCTION     0.12     0.27    10.17     0  02:07        0.27
  HS02004788           JUNCTION     0.07     0.17    10.07     0  02:07        0.17
  HS02004792           JUNCTION     0.10     0.24     9.77     0  02:07        0.24
  HS02004799           JUNCTION     0.25     0.51     9.72     0  02:07        0.51
  HS02004802           JUNCTION     0.24     0.44     9.57     0  02:08        0.44
  HS02004807           JUNCTION     0.21     0.41     9.58     0  02:08        0.41
  HS02004817           JUNCTION     0.50     0.74     9.58     0  02:08        0.74
  HS02004824           JUNCTION     0.07     0.17     9.57     0  02:08        0.17
  HS02004830           JUNCTION     0.07     0.13     9.60     0  02:08        0.13
  HS02004837           JUNCTION     0.05     0.10     9.68     0  02:07        0.10
  HS02004842           JUNCTION     0.34     0.41     9.68     0  02:07        0.41
  HS02004848           JUNCTION     0.03     0.08     9.68     0  02:07        0.08
  HS02004852           JUNCTION     0.04     0.09     9.60     0  02:07        0.09
  HS02004856           JUNCTION     0.10     0.16     9.59     0  02:07        0.16
  HS02004862           JUNCTION     0.05     0.12     9.51     0  02:07        0.12
  HS02004870           JUNCTION     0.04     0.10     9.39     0  02:07        0.10
  HS02004876           JUNCTION     0.09     0.18     9.21     0  02:07        0.18
  HS02004881           JUNCTION     0.02     0.07     9.10     0  01:22        0.06
  HS02004901           JUNCTION     0.21     0.40    10.22     0  02:07        0.40
  WS02001211           JUNCTION     0.63     0.73     5.56     0  02:11        0.73
  WS02001212           JUNCTION     0.37     0.48     5.55     0  02:11        0.48
  WS02001213           JUNCTION     0.59     0.77     5.53     0  02:10        0.77
  WS02003059           JUNCTION     0.65     0.84     5.53     0  02:10        0.84
  WS02003060           JUNCTION     0.38     0.59     5.52     0  02:09        0.59
  WS02003066           JUNCTION     0.23     0.39     5.94     0  02:09        0.39
  WS02003067           JUNCTION     0.55     0.82     6.14     0  02:08        0.82
  WS02003069           JUNCTION     0.43     0.67     5.25     0  02:10        0.67
  WS02003072           JUNCTION     0.49     0.72     5.09     0  02:11        0.72
  WS02003073           JUNCTION     0.29     0.45     4.51     0  02:11        0.45
  WS02004138           JUNCTION     0.13     0.14     7.39     0  00:32        0.14
  WS02004139           JUNCTION     0.57     0.66     5.57     0  02:12        0.66
  WS02004401           JUNCTION     0.76     1.41     7.41     0  01:24        1.25
  WS02004402           JUNCTION     0.78     1.39     7.35     0  01:24        1.24
  WS02004403           JUNCTION     0.78     1.30     7.23     0  01:24        1.21
  WS02004404           JUNCTION     0.84     1.34     7.19     0  01:24        1.25
  WS02004405           JUNCTION     0.83     1.33     7.18     0  01:24        1.22
  WS02004406           JUNCTION     0.82     1.47     7.30     0  01:24        1.17
  WS02004407           JUNCTION     0.23     0.40     6.72     0  02:08        0.40
  WS02004409           JUNCTION     0.53     0.99     6.76     0  02:09        0.99
  WS02004410           JUNCTION     0.54     0.97     6.69     0  02:09        0.97
  WS02004411           JUNCTION     0.55     0.95     6.63     0  02:09        0.95
  WS02004412           JUNCTION     0.55     0.92     6.56     0  02:09        0.92
  WS02004413           JUNCTION     0.69     1.03     6.50     0  02:09        1.03
  WS02006109           JUNCTION     0.94     1.94     8.56     0  02:10        1.94
  WS02006110           JUNCTION     0.87     2.00     8.58     0  01:21        1.60
  WS02006111           JUNCTION     0.41     0.93     7.64     0  01:26        0.93
  WS02006112           JUNCTION     0.97     1.60     7.48     0  02:07        1.58
  WS02006113           JUNCTION     0.45     0.97     7.87     0  02:07        0.97
  WS02006115           JUNCTION     0.68     1.40     7.54     0  01:24        1.25
  WS02006116           JUNCTION     0.75     1.58     7.62     0  01:24        1.28
  WS02006228           JUNCTION     0.99     1.97     8.62     0  02:10        1.97
  WS02006229           JUNCTION     1.00     1.98     8.67     0  02:07        1.98
  WS02006230           JUNCTION     0.97     2.53     9.28     0  02:03        2.53
  WS02006231           JUNCTION     0.70     2.24     9.36     0  01:32        2.24
  WS02006232           JUNCTION     0.80     2.18     9.22     0  01:31        2.18
  WS02006234           JUNCTION     0.70     1.96     9.12     0  01:26        1.96
  WS02006235           JUNCTION     0.72     2.00     9.16     0  01:25        2.00
  WS02006238           JUNCTION     0.74     2.15     9.29     0  01:31        2.15
  WS02006239           JUNCTION     0.69     2.03     9.24     0  01:31        2.03
  WS02006240           JUNCTION     0.65     2.10     9.39     0  01:32        2.10
  WS02006242           JUNCTION     0.69     1.55     8.82     0  01:21        1.55
  WS02006243           JUNCTION     0.60     1.48     8.90     0  01:21        1.48
  WS02006245           JUNCTION     0.58     1.55     9.04     0  02:49        1.55
  WS02006247           JUNCTION     0.59     1.46     8.96     0  02:03        1.46
  WS02006248           JUNCTION     0.54     1.10     8.69     0  01:21        1.10
  WS02006249           JUNCTION     0.56     1.09     8.69     0  01:21        1.09
  WS02006251           JUNCTION     0.59     1.75     9.42     0  01:22        1.26
  WS02006252           JUNCTION     0.38     1.50     9.74     0  00:00        1.50
  WS02006253           JUNCTION     0.62     1.87     9.51     0  01:22        1.31
  WS02006256           JUNCTION     0.98     2.35     9.28     0  00:00        2.35
  WS02006280           JUNCTION     0.15     0.34     8.62     0  02:06        0.34
  WS02006284           JUNCTION     0.45     0.68     9.08     0  02:08        0.68
  WS02006287           JUNCTION     0.20     0.43     9.38     0  02:07        0.43
  WSF200               JUNCTION     0.23     0.43     5.66     0  02:09        0.43
  YS02001580           JUNCTION     0.11     0.58     9.12     0  01:30        0.58
  YS02001583           JUNCTION     0.15     0.62     9.12     0  01:30        0.61
  YS02001586           JUNCTION     0.27     0.98     9.16     0  01:45        0.98
  YS02001590           JUNCTION     0.41     1.26     9.12     0  02:10        1.22
  YS02001593           JUNCTION     0.35     1.25     9.11     0  02:10        1.16
  YS02001596           JUNCTION     0.52     1.80     9.22     0  02:10        1.80
  YS02001600           JUNCTION     0.64     1.87     9.00     0  01:35        1.87
  YS02001601           JUNCTION     0.83     2.06     8.90     0  01:29        2.06
  YS02001602           JUNCTION     0.71     1.86     8.76     0  01:35        1.86
  YS02001605           JUNCTION     0.63     1.67     8.57     0  01:35        1.67
  YS02001607           JUNCTION     0.53     1.21     8.06     0  01:30        1.20
  YS02001610           JUNCTION     0.56     1.25     8.05     0  01:33        1.24
  YS02001613           JUNCTION     0.52     1.19     8.03     0  01:30        1.18
  YS02001616           JUNCTION     0.45     1.10     8.01     0  01:30        1.09
  YS02001619           JUNCTION     0.43     1.07     8.00     0  01:30        1.07
  YS02001622           JUNCTION     0.42     1.05     7.96     0  01:30        1.05
  YS02001625           JUNCTION     0.66     1.31     7.91     0  01:32        1.31
  YS02001629           JUNCTION     0.56     1.29     7.84     0  01:33        1.29
  YS02001633           JUNCTION     0.62     1.36     7.81     0  01:45        1.36
  YS02001641           JUNCTION     0.57     1.12     7.56     0  01:32        1.12
  YS02001644           JUNCTION     0.55     1.07     7.50     0  01:35        1.05
  YS02001647           JUNCTION     0.30     0.69     7.30     0  01:32        0.69
  YS02001649           JUNCTION     0.34     0.78     7.17     0  01:34        0.78
  YS02001652           JUNCTION     0.21     0.57     7.16     0  01:34        0.57
  YS02001655           JUNCTION     0.10     0.30     7.15     0  01:34        0.30
  YS02001658           JUNCTION     0.08     0.20     7.35     0  01:31        0.20
  YS02001661           JUNCTION     0.14     0.26     7.67     0  01:32        0.26
  YS02001664           JUNCTION     0.07     0.17     8.10     0  01:32        0.17
  YS02001745           JUNCTION     0.06     0.15     7.67     0  01:31        0.15
  YS02001748           JUNCTION     0.07     0.18     7.25     0  01:31        0.18
  YS02001751           JUNCTION     0.07     0.17     7.05     0  01:31        0.17
  YS02001754           JUNCTION     0.14     0.43     7.04     0  01:32        0.43
  YS02001757           JUNCTION     0.34     0.78     7.04     0  01:34        0.78
  YS02001759           JUNCTION     0.27     0.68     7.05     0  01:33        0.68
  YS02001762           JUNCTION     0.26     0.65     7.05     0  01:33        0.65
  YS02001765           JUNCTION     0.23     0.61     7.06     0  01:33        0.61
  YS02001767           JUNCTION     0.22     0.58     7.07     0  01:33        0.58
  YS02001770           JUNCTION     0.24     0.59     7.08     0  01:34        0.59
  YS02001774           JUNCTION     0.30     0.66     7.09     0  01:33        0.66
  YS02001779           JUNCTION     0.12     0.40     7.09     0  01:34        0.40
  YS02001783           JUNCTION     0.30     0.74     6.88     0  01:35        0.74
  YS02001784           JUNCTION     0.32     0.73     6.80     0  01:36        0.73
  YS02001786           JUNCTION     0.27     0.60     6.63     0  01:36        0.60
  YS02001788           JUNCTION     0.21     0.48     6.45     0  01:36        0.48
  YS02001790           JUNCTION     0.25     0.57     6.21     0  01:36        0.56
  YS02001791           JUNCTION     0.16     0.34     5.81     0  01:37        0.34
  YS02001793           JUNCTION     0.09     0.21     5.05     0  01:35        0.21
  YS02001882           JUNCTION     0.33     0.78     7.49     0  01:35        0.77
  YS02001884           JUNCTION     0.42     0.87     7.49     0  01:36        0.87
  YS02001887           JUNCTION     0.49     0.95     7.49     0  01:35        0.95
  YS02001890           JUNCTION     0.52     0.98     7.49     0  01:36        0.98
  YS02001895           JUNCTION     0.30     0.74     7.48     0  01:36        0.74
  YS02001898           JUNCTION     0.31     0.76     7.49     0  01:36        0.75
  YS02001901           JUNCTION     0.42     0.89     7.50     0  01:35        0.88
  YS02001904           JUNCTION     0.40     0.85     7.48     0  01:35        0.85
  YS02001907           JUNCTION     0.71     1.22     7.50     0  01:35        1.21
  YS02001910           JUNCTION     0.51     1.03     7.54     0  01:35        1.00
  YS02001915           JUNCTION     0.33     0.78     7.50     0  01:36        0.78
  YS02001918           JUNCTION     0.14     0.42     7.49     0  01:36        0.42
  YS02001920           JUNCTION     0.22     0.49     7.50     0  01:36        0.49
  YS02001923           JUNCTION     0.08     0.22     7.48     0  01:36        0.22
  YS02001926           JUNCTION     0.15     0.30     7.74     0  01:34        0.30
  YS02001929           JUNCTION     0.08     0.17     7.86     0  01:33        0.17
  YS02006553           JUNCTION     0.71     1.21     7.49     0  01:35        1.19
  YS02006556           JUNCTION     0.68     1.16     7.47     0  01:35        1.15
  YS02006558           JUNCTION     0.72     1.20     7.46     0  01:35        1.19
  YS02006561           JUNCTION     0.17     0.40     7.06     0  01:34        0.40
  YS02163301           JUNCTION     0.58     2.03     8.55     0  02:10        2.03
  YS02163601           JUNCTION     0.64     1.27     7.67     0  01:34        1.27
  YS02164001           JUNCTION     0.56     1.15     7.61     0  01:35        1.14
  YSB1154              JUNCTION     0.35     0.60     9.66     0  02:07        0.60
  YSB1171              JUNCTION     0.49     0.76     9.66     0  02:07        0.76
  YSB1174              JUNCTION     0.30     0.55     9.66     0  02:07        0.55
  YSB6556              JUNCTION     0.25     0.49     9.66     0  02:07        0.49
  CC-1                 OUTFALL      0.00     0.00     0.00     0  00:00        0.00
  CC-2                 OUTFALL      0.00     0.00     0.00     0  00:00        0.00
  JK-1                 OUTFALL      0.00     0.00     0.00     0  00:00        0.00
  JK-2                 OUTFALL      0.00     0.00     0.00     0  00:00        0.00
  WSC                  OUTFALL      0.29     0.45     1.12     0  02:12        0.45
  CC-storage           STORAGE      0.13     0.80     6.30     0  00:00        0.76
  JK-storage           STORAGE      0.05     2.99     3.79     0  00:00        0.68
  XR-storage           STORAGE      7.76     9.26     7.26     0  08:00        9.26
  
  
  *******************
  Node Inflow Summary
  *******************
  
  -------------------------------------------------------------------------------------------------
                                  Maximum  Maximum                  Lateral       Total        Flow
                                  Lateral    Total  Time of Max      Inflow      Inflow     Balance
                                   Inflow   Inflow   Occurrence      Volume      Volume       Error
  Node                 Type           LPS      LPS  days hr:min    10^6 ltr    10^6 ltr     Percent
  -------------------------------------------------------------------------------------------------
  HS02004478           JUNCTION      0.00   820.30     0  02:07           0        5.07       0.007
  HS02004479           JUNCTION      0.00    91.15     0  01:34           0        0.52       0.142
  HS02004480           JUNCTION      0.00   609.87     0  02:07           0        3.65       0.021
  HS02004770           JUNCTION    170.86   210.47     0  02:06       0.997        1.22       0.251
  HS02004777           JUNCTION      0.03   210.26     0  02:07    0.000864        1.22       0.429
  HS02004785           JUNCTION      0.15   210.29     0  02:07     0.00432        1.22       0.041
  HS02004788           JUNCTION     65.92   275.86     0  02:07       0.427        1.65       0.023
  HS02004792           JUNCTION    209.73   485.20     0  02:07        1.25         2.9       0.013
  HS02004799           JUNCTION     43.83   525.38     0  02:07       0.243        3.14       0.106
  HS02004802           JUNCTION      0.00   210.50     0  02:07           0        1.44       0.267
  HS02004807           JUNCTION     54.87   210.75     0  02:07       0.299        1.44       0.306
  HS02004817           JUNCTION      0.60   161.65     0  02:08      0.0173        1.16       1.458
  HS02004824           JUNCTION     84.64   161.11     0  02:07       0.521        1.14       0.047
  HS02004830           JUNCTION      0.15    76.79     0  02:07     0.00432       0.623       0.199
  HS02004837           JUNCTION     56.62    76.66     0  02:06       0.466       0.633       0.128
  HS02004842           JUNCTION      0.00    23.60     0  02:25           0        0.18       7.791
  HS02004848           JUNCTION     70.95    70.95     0  02:07       0.446       0.446       0.011
  HS02004852           JUNCTION      0.00    47.58     0  02:07           0       0.279       0.020
  HS02004856           JUNCTION     22.24    67.95     0  02:07       0.123       0.402       0.360
  HS02004862           JUNCTION     30.87    98.77     0  02:07       0.194       0.595       0.029
  HS02004870           JUNCTION     29.68   125.83     0  02:07       0.163       0.758       0.014
  HS02004876           JUNCTION     28.97   153.80     0  02:06       0.168       0.926       0.059
  HS02004881           JUNCTION     15.97   168.10     0  02:06      0.0862        1.01       0.026
  HS02004901           JUNCTION     39.87    39.87     0  02:06       0.228       0.229       0.775
  WS02001211           JUNCTION      7.35   203.98     0  03:11       0.212        5.44       0.611
  WS02001212           JUNCTION      0.00   210.51     0  03:12           0        5.41       0.273
  WS02001213           JUNCTION      0.00   215.99     0  03:12           0        5.39       0.347
  WS02003059           JUNCTION      0.00   222.93     0  03:12           0        5.39       0.596
  WS02003060           JUNCTION     16.53  1176.39     0  02:09       0.476        13.6       0.107
  WS02003066           JUNCTION      0.00   962.50     0  02:09           0        7.76       0.020
  WS02003067           JUNCTION      0.00   962.09     0  02:09           0        7.77       0.055
  WS02003069           JUNCTION      0.32  1175.40     0  02:09     0.00922        13.6       0.114
  WS02003072           JUNCTION      0.00  1175.27     0  02:10           0        13.6       0.154
  WS02003073           JUNCTION      1.82  1177.03     0  02:11      0.0524        13.6       0.158
  WS02004138           JUNCTION      0.00   380.00     0  00:00           0        5.25       0.053
  WS02004139           JUNCTION      0.32   190.32     0  00:32     0.00924        5.26       0.508
  WS02004401           JUNCTION      0.00   964.61     0  02:08           0        7.88       0.134
  WS02004402           JUNCTION      0.00   964.94     0  02:08           0        7.86       0.139
  WS02004403           JUNCTION      0.00   964.92     0  02:08           0        7.85       0.133
  WS02004404           JUNCTION      0.16   964.84     0  02:08     0.00467        7.85       0.118
  WS02004405           JUNCTION      0.04   965.52     0  02:08      0.0011        7.84       0.157
  WS02004406           JUNCTION      0.00   964.51     0  02:08           0        7.83       0.273
  WS02004407           JUNCTION      0.00   964.50     0  02:07           0        7.81       0.017
  WS02004409           JUNCTION      0.00   963.98     0  02:08           0        7.81       0.041
  WS02004410           JUNCTION      0.00   962.74     0  02:08           0         7.8       0.063
  WS02004411           JUNCTION      0.00   961.71     0  02:09           0         7.8       0.078
  WS02004412           JUNCTION      0.00   961.96     0  02:09           0        7.79       0.101
  WS02004413           JUNCTION      0.00   962.07     0  02:09           0        7.78       0.184
  WS02006109           JUNCTION      1.23   932.01     0  02:08      0.0354        7.73       0.100
  WS02006110           JUNCTION      0.00   932.01     0  02:08           0        7.73       0.099
  WS02006111           JUNCTION      0.00   939.67     0  01:22           0        7.72       0.017
  WS02006112           JUNCTION     32.71   964.34     0  02:08       0.188         7.9       0.264
  WS02006113           JUNCTION      0.00   931.98     0  02:08           0        7.72       0.026
  WS02006115           JUNCTION      0.00   964.20     0  02:08           0        7.88       0.097
  WS02006116           JUNCTION      0.00   964.63     0  02:08           0        7.87      -0.012
  WS02006228           JUNCTION      0.00   933.95     0  02:10           0         7.7       0.034
  WS02006229           JUNCTION      0.00   964.49     0  02:06           0        7.73       0.119
  WS02006230           JUNCTION     10.28   405.49     0  00:21       0.296        2.68       0.286
  WS02006231           JUNCTION      0.00   395.90     0  00:21           0        2.36      -0.153
  WS02006232           JUNCTION      0.00   395.78     0  00:21           0        2.36       0.265
  WS02006234           JUNCTION      0.00   396.58     0  00:21           0        2.35      -0.392
  WS02006235           JUNCTION      0.00   513.51     0  01:21           0        2.42       0.264
  WS02006238           JUNCTION      0.00   396.79     0  00:21           0        2.15      -0.553
  WS02006239           JUNCTION      0.00   396.58     0  00:21           0        2.09      -0.441
  WS02006240           JUNCTION      0.00   416.19     0  01:21           0        2.07      -0.198
  WS02006242           JUNCTION      0.00   434.35     0  01:21           0        2.09      -0.071
  WS02006243           JUNCTION      0.00   454.07     0  01:21           0        2.09      -0.225
  WS02006245           JUNCTION      0.00   471.03     0  01:21           0         2.1       0.784
  WS02006247           JUNCTION      0.00   474.55     0  01:21           0         2.1      -0.023
  WS02006248           JUNCTION      0.00   489.68     0  01:19           0        2.18       0.032
  WS02006249           JUNCTION      0.00   596.05     0  01:22           0         4.4       0.270
  WS02006251           JUNCTION      0.08   603.31     0  01:18     0.00222        4.46      -0.034
  WS02006252           JUNCTION      0.00   400.00     0  00:00           0        3.37      -0.090
  WS02006253           JUNCTION      4.06   242.74     0  03:09       0.021        1.09       0.189
  WS02006256           JUNCTION      0.00   305.37     0  01:17           0       0.753      -1.516
  WS02006280           JUNCTION      0.00   820.56     0  02:08           0        5.07       0.004
  WS02006284           JUNCTION      0.10   820.50     0  02:08     0.00275        5.07       0.023
  WS02006287           JUNCTION      0.00   820.34     0  02:08           0        5.07       0.017
  WSF200               JUNCTION      0.00   962.68     0  02:09           0        7.76       0.007
  YS02001580           JUNCTION      0.00    22.39     0  01:29           0     0.00612       0.281
  YS02001583           JUNCTION      0.00    53.06     0  01:28           0      0.0177      -2.018
  YS02001586           JUNCTION    222.24   227.49     0  02:10        1.43        1.45       0.063
  YS02001590           JUNCTION      0.00   231.75     0  02:10           0        1.43      -0.029
  YS02001593           JUNCTION      0.00   223.57     0  02:06           0        1.43       0.017
  YS02001596           JUNCTION      0.00   223.59     0  02:06           0        1.43      -0.002
  YS02001600           JUNCTION      0.00   223.70     0  02:06           0        1.43       0.018
  YS02001601           JUNCTION    356.03   570.81     0  01:31        2.01        3.44       0.026
  YS02001602           JUNCTION      0.00   512.26     0  02:11           0        3.36       0.016
  YS02001605           JUNCTION      0.00   512.37     0  02:11           0        3.36       0.019
  YS02001607           JUNCTION      0.00   512.23     0  02:11           0        3.36       0.059
  YS02001610           JUNCTION      0.00   512.90     0  02:11           0        3.36       0.078
  YS02001613           JUNCTION      0.00   512.68     0  02:11           0        3.36       0.056
  YS02001616           JUNCTION      0.00   512.82     0  02:11           0        3.36       0.017
  YS02001619           JUNCTION    371.01   876.84     0  02:06        2.29        5.65      -0.001
  YS02001622           JUNCTION      0.00   876.95     0  02:05           0        5.65       0.001
  YS02001625           JUNCTION      0.00   876.75     0  02:06           0        5.65       0.180
  YS02001629           JUNCTION      0.00   876.73     0  02:05           0        5.64       0.010
  YS02001633           JUNCTION    261.50  1117.10     0  01:33        1.46        7.11       0.049
  YS02001641           JUNCTION      0.00  1118.20     0  01:35           0        7.11       0.042
  YS02001644           JUNCTION    229.38  1345.67     0  01:33        1.26        8.36       0.039
  YS02001647           JUNCTION      0.00  1345.19     0  01:33           0        8.35       0.007
  YS02001649           JUNCTION      0.00  1550.27     0  01:32           0        9.49       0.005
  YS02001652           JUNCTION      0.00   212.70     0  01:32           0        1.15      -0.131
  YS02001655           JUNCTION      0.15   207.29     0  01:32     0.00443        1.15       0.100
  YS02001658           JUNCTION      0.00   206.50     0  01:32           0        1.14      -0.001
  YS02001661           JUNCTION      0.00   206.55     0  01:32           0        1.14       0.035
  YS02001664           JUNCTION    206.58   206.58     0  01:32        1.14        1.14      -0.012
  YS02001745           JUNCTION    133.68   133.68     0  01:31         0.7         0.7      -0.004
  YS02001748           JUNCTION      0.04   133.70     0  01:31      0.0013       0.701      -0.002
  YS02001751           JUNCTION      0.01   133.70     0  01:31    0.000317       0.701       0.110
  YS02001754           JUNCTION      0.26   133.94     0  01:31     0.00749       0.708      -0.154
  YS02001757           JUNCTION      0.00  2135.22     0  01:34           0        12.7       0.007
  YS02001759           JUNCTION    183.30   455.40     0  01:34       0.964        2.46      -0.008
  YS02001762           JUNCTION      0.00   278.55     0  01:34           0        1.49       0.013
  YS02001765           JUNCTION      0.00   277.80     0  01:34           0        1.49       0.014
  YS02001767           JUNCTION      0.54   275.21     0  01:35      0.0154        1.49       0.021
  YS02001770           JUNCTION    276.51   276.51     0  01:31        1.48         1.5      -0.019
  YS02001774           JUNCTION      0.00    35.79     0  01:08           0      0.0296       4.436
  YS02001779           JUNCTION      0.01    15.27     0  01:09    0.000144     0.00666       0.314
  YS02001783           JUNCTION      0.00   816.69     0  01:36           0        4.66       0.006
  YS02001784           JUNCTION      1.06   823.59     0  01:35      0.0305        4.69       0.011
  YS02001786           JUNCTION      0.06   817.48     0  01:36     0.00162        4.69       0.016
  YS02001788           JUNCTION      0.07   815.77     0  01:36     0.00204        4.69       0.007
  YS02001790           JUNCTION      0.15   815.39     0  01:36     0.00446        4.69       0.009
  YS02001791           JUNCTION      0.00   852.05     0  01:36           0        4.69       0.005
  YS02001793           JUNCTION      0.00   818.06     0  01:37           0        4.69      -0.084
  YS02001882           JUNCTION      0.00    47.58     0  02:38           0      0.0699       0.997
  YS02001884           JUNCTION      0.00    62.42     0  01:15           0       0.111       2.324
  YS02001887           JUNCTION    193.33   203.34     0  01:24        1.02        1.05       0.401
  YS02001890           JUNCTION      0.00   206.30     0  01:24           0        1.01       0.511
  YS02001895           JUNCTION      0.00   196.76     0  01:25           0           1       0.224
  YS02001898           JUNCTION      0.00   205.46     0  01:24           0        1.01      -0.013
  YS02001901           JUNCTION      0.00   213.48     0  01:34           0        1.01       0.323
  YS02001904           JUNCTION      0.00   207.09     0  01:35           0        1.02       0.277
  YS02001907           JUNCTION      0.00   560.62     0  01:37           0        3.25       0.560
  YS02001910           JUNCTION      0.00   432.47     0  01:33           0        2.23       0.230
  YS02001915           JUNCTION    254.83   380.93     0  01:37        1.41        2.23       0.075
  YS02001918           JUNCTION      0.00   134.72     0  01:38           0       0.824       0.039
  YS02001920           JUNCTION      2.87   132.02     0  01:37      0.0827       0.825       0.128
  YS02001923           JUNCTION      0.04   127.90     0  01:34     0.00109       0.742       0.002
  YS02001926           JUNCTION      0.05   127.92     0  01:33      0.0015       0.741       0.042
  YS02001929           JUNCTION    127.88   127.88     0  01:33        0.74        0.74      -0.009
  YS02006553           JUNCTION      0.00   560.42     0  01:37           0        3.24       0.363
  YS02006556           JUNCTION      0.00   561.35     0  01:37           0        3.25       0.256
  YS02006558           JUNCTION    275.29   817.81     0  01:36        1.48         4.7       0.064
  YS02006561           JUNCTION      0.00   818.25     0  01:36           0        4.66       0.001
  YS02163301           JUNCTION      0.00   878.00     0  02:07           0        5.65       0.030
  YS02163601           JUNCTION      0.11  1117.08     0  01:33     0.00317         7.1       0.072
  YS02164001           JUNCTION      0.00  1117.35     0  01:33           0         7.1       0.037
  YSB1154              JUNCTION     51.41    51.41     0  01:34       0.292       0.293       0.492
  YSB1171              JUNCTION      0.00    91.41     0  01:34           0       0.518       1.239
  YSB1174              JUNCTION     40.80    40.80     0  01:32       0.219       0.219       0.586
  YSB6556              JUNCTION      0.00    51.34     0  01:33           0       0.294       0.434
  CC-1                 OUTFALL       0.00   683.00     0  00:00           0        5.75       0.000
  CC-2                 OUTFALL       0.00   683.00     0  00:00           0        5.75       0.000
  JK-1                 OUTFALL       0.00  1000.00     0  00:00           0        2.44       0.000
  JK-2                 OUTFALL       0.00  1000.00     0  00:00           0        2.44       0.000
  WSC                  OUTFALL       0.00  1176.58     0  02:12           0        13.6       0.000
  CC-storage           STORAGE       0.00  2137.28     0  01:35           0        14.9      -0.288
  JK-storage           STORAGE       0.00   906.22     0  01:37           0        4.85     -13.926
  XR-storage           STORAGE     200.00   200.00     0  00:00        5.76        6.36       0.001
  
  
  **********************
  Node Surcharge Summary
  **********************
  
  Surcharging occurs when water rises above the top of the highest conduit.
  ---------------------------------------------------------------------
                                               Max. Height   Min. Depth
                                   Hours       Above Crown    Below Rim
  Node                 Type      Surcharged         Meters       Meters
  ---------------------------------------------------------------------
  HS02004817           JUNCTION        1.01          0.037        1.703
  WS02004401           JUNCTION        1.71          0.408        1.252
  WS02004402           JUNCTION        1.72          0.386        1.354
  WS02004403           JUNCTION        1.73          0.302        1.728
  WS02004404           JUNCTION        1.78          0.340        2.440
  WS02004405           JUNCTION        1.77          0.335        2.465
  WS02004406           JUNCTION        1.76          0.466        1.984
  WS02004413           JUNCTION        1.30          0.032        2.168
  WS02006109           JUNCTION        2.08          1.117        0.703
  WS02006110           JUNCTION        1.88          1.087        0.763
  WS02006111           JUNCTION        1.15          0.119        1.751
  WS02006112           JUNCTION        1.95          0.597        1.083
  WS02006113           JUNCTION        1.19          0.173        1.757
  WS02006115           JUNCTION        1.68          0.391        1.859
  WS02006116           JUNCTION        1.69          0.518        1.772
  WS02006228           JUNCTION        2.05          1.144        1.056
  WS02006230           JUNCTION        1.76          1.454        0.116
  WS02006231           JUNCTION        1.78          1.530        0.000
  WS02006232           JUNCTION        2.10          1.480        0.000
  WS02006234           JUNCTION        1.79          1.240        0.000
  WS02006235           JUNCTION        1.91          1.290        0.000
  WS02006238           JUNCTION        1.98          1.430        0.000
  WS02006239           JUNCTION        1.89          1.290        0.000
  WS02006240           JUNCTION        1.88          1.390        0.000
  WS02006242           JUNCTION        2.02          0.820        0.000
  WS02006243           JUNCTION        1.88          0.770        0.000
  WS02006245           JUNCTION        1.87          0.845        0.005
  WS02006247           JUNCTION        1.90          0.748        0.012
  WS02006248           JUNCTION        1.84          0.380        0.000
  WS02006249           JUNCTION        1.89          0.390        0.000
  WS02006251           JUNCTION        1.70          0.715        0.465
  WS02006252           JUNCTION        2.34          1.100        0.000
  WS02006253           JUNCTION        1.70          0.827        1.653
  WS02006256           JUNCTION        6.44          2.050        0.000
  YS02001586           JUNCTION        0.90          0.364        0.146
  YS02001590           JUNCTION        1.15          0.612        0.138
  YS02001593           JUNCTION        1.15          0.625        0.215
  YS02001596           JUNCTION        1.42          1.070        0.000
  YS02001600           JUNCTION        1.76          1.190        0.000
  YS02001601           JUNCTION        1.98          1.440        0.000
  YS02001602           JUNCTION        1.92          1.261        0.009
  YS02001605           JUNCTION        1.88          1.070        0.110
  YS02001607           JUNCTION        1.03          0.209        0.471
  YS02001610           JUNCTION        1.10          0.247        0.433
  YS02001613           JUNCTION        0.98          0.188        0.512
  YS02001616           JUNCTION        0.78          0.102        0.508
  YS02001619           JUNCTION        0.74          0.068        0.542
  YS02001622           JUNCTION        0.72          0.054        0.566
  YS02001625           JUNCTION        1.29          0.306        0.474
  YS02001633           JUNCTION        1.31          0.338        0.722
  YS02001641           JUNCTION        1.07          0.122        0.978
  YS02001644           JUNCTION        0.80          0.066        0.854
  YS02001907           JUNCTION        1.20          0.206        0.744
  YS02001910           JUNCTION        0.01          0.035        1.065
  YS02006553           JUNCTION        1.24          0.209        0.981
  YS02006556           JUNCTION        0.76          0.118        1.232
  YS02006558           JUNCTION        0.69          0.095        1.305
  YS02163301           JUNCTION        1.27          1.030        0.000
  YS02163601           JUNCTION        1.39          0.271        0.809
  YS02164001           JUNCTION        1.11          0.150        0.950
  
  
  *********************
  Node Flooding Summary
  *********************
  
  Flooding refers to all water that overflows a node, whether it ponds or not.
  --------------------------------------------------------------------------
                                                             Total   Maximum
                                 Maximum   Time of Max       Flood    Ponded
                        Hours       Rate    Occurrence      Volume     Depth
  Node                 Flooded       LPS   days hr:min    10^6 ltr    Meters
  --------------------------------------------------------------------------
  WS02006231              0.01      2.32      0  02:03       0.000     0.000
  WS02006232              0.01      5.15      0  02:49       0.000     0.000
  WS02006234              0.01     18.46      0  02:09       0.000     0.000
  WS02006235              0.01     42.23      0  01:35       0.001     0.000
  WS02006238              0.01     17.05      0  02:49       0.000     0.000
  WS02006239              0.01      8.44      0  02:49       0.000     0.000
  WS02006240              0.01      7.21      0  02:49       0.000     0.000
  WS02006242              0.48     59.97      0  02:06       0.026     0.000
  WS02006243              0.01     22.60      0  03:04       0.000     0.000
  WS02006248              1.18     69.42      0  01:21       0.075     0.000
  WS02006249              1.70    481.85      0  02:08       2.213     0.000
  WS02006252              0.01    268.54      0  03:09       0.001     0.000
  WS02006256              0.69    302.67      0  01:17       0.498     0.000
  YS02001596              0.01      0.17      0  02:10       0.000     0.000
  YS02001600              0.01      0.15      0  01:35       0.000     0.000
  YS02001601              0.69     64.44      0  01:31       0.077     0.000
  YS02163301              0.01      0.63      0  02:10       0.000     0.000
  
  
  **********************
  Storage Volume Summary
  **********************
  
  --------------------------------------------------------------------------------------------------
                         Average     Avg  Evap Exfil       Maximum     Max    Time of Max    Maximum
                          Volume    Pcnt  Pcnt  Pcnt        Volume    Pcnt     Occurrence    Outflow
  Storage Unit           1000 m3    Full  Loss  Loss       1000 m3    Full    days hr:min        LPS
  --------------------------------------------------------------------------------------------------
  CC-storage               0.352       5     0     0         2.229      35       0  00:00    1783.53
  JK-storage               0.003       1     0     0         0.150      52       0  00:00    2300.00
  XR-storage               0.931      65     0     0         1.111      77       0  08:00     380.00
  
  
  ***********************
  Outfall Loading Summary
  ***********************
  
  -----------------------------------------------------------
                         Flow       Avg       Max       Total
                         Freq      Flow      Flow      Volume
  Outfall Node           Pcnt       LPS       LPS    10^6 ltr
  -----------------------------------------------------------
  CC-1                  50.11    683.00    683.00       5.748
  CC-2                  50.11    683.00    683.00       5.748
  JK-1                  14.75    993.54   1000.00       2.443
  JK-2                  14.75    993.54   1000.00       2.443
  WSC                   99.95    616.67   1176.58      13.570
  -----------------------------------------------------------
  System                45.94   3969.75   1176.58      29.952
  
  
  ********************
  Link Flow Summary
  ********************
  
  -----------------------------------------------------------------------------
                                 Maximum  Time of Max   Maximum    Max/    Max/
                                  |Flow|   Occurrence   |Veloc|    Full    Full
  Link                 Type          LPS  days hr:min     m/sec    Flow   Depth
  -----------------------------------------------------------------------------
  1                    CONDUIT   1176.58     0  02:12      3.47    0.41    0.45
  HS02004478WS02006287 CONDUIT    820.34     0  02:08      2.26    0.23    0.40
  HS02004479HS02004480 CONDUIT     91.25     0  01:34      0.43    0.09    0.62
  HS02004480HS02004478 CONDUIT    609.89     0  02:07      1.64    2.57    0.53
  HS02004770HS02004777 CONDUIT    210.23     0  02:07      0.52    0.38    0.58
  HS02004777HS02004785 CONDUIT    210.14     0  02:07      0.62    0.26    0.49
  HS02004785HS02004788 CONDUIT    210.30     0  02:08      0.96    1.59    0.31
  HS02004788HS02004792 CONDUIT    275.81     0  02:07      1.32    0.18    0.30
  HS02004792HS02004799 CONDUIT    485.10     0  02:07      1.29    0.30    0.54
  HS02004799HS02004480 CONDUIT    525.33     0  02:07      1.15    0.66    0.65
  HS02004802HS02004478 CONDUIT    210.70     0  02:09      0.56    0.19    0.54
  HS02004807HS02004802 CONDUIT    210.50     0  02:07      0.51    0.40    0.60
  HS02004817HS02004807 CONDUIT    161.67     0  02:08      0.29    0.10    0.79
  HS02004817HS02004824 CONDUIT    161.05     0  02:08      0.37    0.07    0.62
  HS02004824HS02004830 CONDUIT     76.63     0  02:08      0.62    0.10    0.21
  HS02004830HS02004837 CONDUIT     76.64     0  02:07      0.68    0.08    0.16
  HS02004837HS02004842 CONDUIT     23.94     0  02:12      0.41    0.01    0.36
  HS02004842HS02004848 CONDUIT     23.60     0  02:25      0.10    0.01    0.35
  HS02004848HS02004852 CONDUIT     47.58     0  02:07      0.57    0.05    0.12
  HS02004852HS02004856 CONDUIT     47.59     0  02:07      0.38    0.05    0.18
  HS02004856HS02004862 CONDUIT     67.92     0  02:07      0.64    0.07    0.15
  HS02004862HS02004870 CONDUIT     98.77     0  02:07      0.87    0.11    0.16
  HS02004870HS02004876 CONDUIT    125.81     0  02:07      0.90    0.08    0.20
  HS02004876HS02004881 CONDUIT    153.81     0  02:07      1.32    1.64    0.17
  HS02004881HS02006253 CONDUIT    184.24     0  01:22      2.20    0.04    0.55
  HS02004901HS02004770 CONDUIT     39.72     0  02:06      0.10    0.15    0.57
  WS02001211WS02001212 CONDUIT    210.51     0  03:12      0.54    0.16    0.60
  WS02001212WS02001213 CONDUIT    215.99     0  03:12      1.04    0.33    0.47
  WS02001213WS02003059 CONDUIT    222.93     0  03:12      0.47    0.37    0.80
  WS02003059WS02003060 CONDUIT    231.44     0  03:11      0.65    0.15    0.71
  WS02003060WS02003069 CONDUIT   1175.08     0  02:09      1.97    0.46    0.52
  WS02003066WSF200     CONDUIT    962.68     0  02:09      3.18    0.16    0.32
  WS02003067WS02003066 CONDUIT    962.50     0  02:09      1.68    0.31    0.51
  WS02003069WS02003072 CONDUIT   1175.27     0  02:10      1.75    0.57    0.58
  WS02003072WS02003073 CONDUIT   1175.21     0  02:11      1.87    2.54    0.54
  WS02004138WS02004139 CONDUIT    190.00     0  00:32      2.16    0.04    0.37
  WS02004139WS02001211 CONDUIT    196.63     0  03:11      0.54    0.25    0.54
  WS02004401WS02004402 CONDUIT    964.94     0  02:08      1.23    1.16    1.00
  WS02004402WS02004403 CONDUIT    964.92     0  02:08      1.24    1.39    1.00
  WS02004403WS02004404 CONDUIT    964.68     0  02:08      1.24    0.70    1.00
  WS02004404WS02004405 CONDUIT    965.48     0  02:08      1.44    9.46    1.00
  WS02004405WS02004406 CONDUIT    964.51     0  02:08      1.43    1.90    1.00
  WS02004406WS02004407 CONDUIT    964.50     0  02:07      1.64    0.43    0.70
  WS02004407WS02004409 CONDUIT    963.98     0  02:08      1.93    0.34    0.69
  WS02004409WS02004410 CONDUIT    962.74     0  02:08      1.39    1.25    0.98
  WS02004410WS02004411 CONDUIT    961.71     0  02:09      1.32    1.31    0.96
  WS02004411WS02004412 CONDUIT    961.96     0  02:09      1.28    1.37    0.93
  WS02004412WS02004413 CONDUIT    962.07     0  02:09      1.24    0.64    0.96
  WS02004413WS02003067 CONDUIT    962.09     0  02:09      1.58    0.41    0.72
  WS02006109WS02006110 CONDUIT    932.01     0  02:08      1.85    1.79    1.00
  WS02006110WS02006113 CONDUIT    931.98     0  02:08      1.96    0.85    1.00
  WS02006111WS02006112 CONDUIT    932.02     0  02:08      2.11    0.44    1.00
  WS02006112WS02006115 CONDUIT    964.20     0  02:08      1.25    0.57    1.00
  WS02006113WS02006111 CONDUIT    939.67     0  01:22      2.82    1.13    1.00
  WS02006115WS02006116 CONDUIT    964.63     0  02:08      1.29    1.24    1.00
  WS02006116WS02004401 CONDUIT    964.61     0  02:08      1.23    1.33    1.00
  WS02006228WS02006109 CONDUIT    930.78     0  02:08      1.85    4.07    1.00
  WS02006229WS02006228 CONDUIT    933.95     0  02:10      1.86    3.09    1.00
  WS02006230WS02006229 CONDUIT    404.93     0  00:21      1.20    9.01    1.00
  WS02006231WS02006230 CONDUIT    395.21     0  00:21      1.38    5.99    1.00
  WS02006232WS02006231 CONDUIT    395.90     0  00:21      1.07    0.83    1.00
  WS02006234WS02006232 CONDUIT    395.78     0  00:21      1.39    0.80    1.00
  WS02006235WS02006234 CONDUIT    396.58     0  00:21      1.21    4.18    1.00
  WS02006238WS02006235 CONDUIT    418.58     0  01:21      1.45    0.93    1.00
  WS02006239WS02006238 CONDUIT    396.79     0  00:21      1.10    1.27    1.00
  WS02006240WS02006239 CONDUIT    396.58     0  00:21      1.25    1.25    1.00
  WS02006242WS02006240 CONDUIT    416.19     0  01:21      1.15    1.65    1.00
  WS02006243WS02006242 CONDUIT    434.35     0  01:21      1.35    0.93    1.00
  WS02006245WS02006243 CONDUIT    454.07     0  01:21      1.43    1.34    1.00
  WS02006247WS02006245 CONDUIT    471.03     0  01:21      1.48    3.73    1.00
  WS02006248WS02006247 CONDUIT    474.55     0  01:21      1.47    1.03    1.00
  WS02006249WS02006248 CONDUIT    489.68     0  01:19      1.45    2.68    1.00
  WS02006251WS02006249 CONDUIT    596.05     0  01:22      1.68    1.72    1.00
  WS02006252WS02006251 CONDUIT    414.09     0  02:10     20.47    1.52    1.00
  WS02006253WS02006251 CONDUIT    355.41     0  03:13      1.19    1.07    1.00
  WS02006256WS02006235 CONDUIT    288.93     0  00:00      4.23    3.06    1.00
  WS02006280WS02006229 CONDUIT    828.22     0  02:06      3.97    0.18    0.57
  WS02006284WS02006280 CONDUIT    820.56     0  02:08      2.76    0.34    0.40
  WS02006287WS02006284 CONDUIT    820.41     0  02:08      2.53    0.38    0.43
  WSF200WS02003060     CONDUIT    963.39     0  02:09      2.34    0.21    0.42
  YS02001580YS02001583 CONDUIT     22.39     0  01:29      0.38    0.09    0.99
  YS02001583YS02001586 CONDUIT     53.06     0  01:28      0.25    0.08    0.99
  YS02001586YS02001590 CONDUIT    231.75     0  02:10      1.26    0.41    1.00
  YS02001590YS02001593 CONDUIT    223.57     0  02:06      1.05    1.40    1.00
  YS02001593YS02001596 CONDUIT    223.59     0  02:06      1.71    0.35    1.00
  YS02001596YS02001600 CONDUIT    223.70     0  02:06      1.21    0.44    1.00
  YS02001600YS02001601 CONDUIT    223.60     0  02:06      0.79    0.39    1.00
  YS02001601YS02001602 CONDUIT    512.26     0  02:11      1.81    1.85    1.00
  YS02001602YS02001605 CONDUIT    512.37     0  02:11      1.81   10.84    1.00
  YS02001605YS02001607 CONDUIT    512.23     0  02:11      1.81    2.81    1.00
  YS02001607YS02001610 CONDUIT    512.90     0  02:11      0.67    0.49    1.00
  YS02001610YS02001613 CONDUIT    512.68     0  02:11      0.65    0.59    1.00
  YS02001613YS02001616 CONDUIT    512.82     0  02:11      0.67    0.44    1.00
  YS02001616YS02001619 CONDUIT    513.11     0  02:11      0.72    0.89    1.00
  YS02001619YS02001622 CONDUIT    876.95     0  02:05      1.47    1.29    1.00
  YS02001622YS02001625 CONDUIT    876.75     0  02:06      1.12    0.47    1.00
  YS02001625YS02001629 CONDUIT    876.73     0  02:05      1.14    0.42    0.96
  YS02001629YS02163301 CONDUIT    878.00     0  02:07      1.12    1.08    1.00
  YS02001633YS02163601 CONDUIT   1116.97     0  01:33      1.42    1.17    1.00
  YS02001641YS02001644 CONDUIT   1118.08     0  01:35      1.42    3.61    1.00
  YS02001644YS02001647 CONDUIT   1345.19     0  01:33      1.91    0.79    0.84
  YS02001647YS02001649 CONDUIT   1345.14     0  01:33      2.25    0.71    0.73
  YS02001649YS02001757 CONDUIT   1552.24     0  01:32      2.46    0.94    0.78
  YS02001652YS02001649 CONDUIT    211.99     0  01:32      1.13    0.11    0.67
  YS02001655YS02001652 CONDUIT    212.70     0  01:32      1.53    0.10    0.42
  YS02001658YS02001655 CONDUIT    207.14     0  01:32      1.73    0.09    0.25
  YS02001661YS02001658 CONDUIT    206.50     0  01:32      1.88    0.08    0.20
  YS02001664YS02001661 CONDUIT    206.55     0  01:32      1.64    0.06    0.22
  YS02001745YS02001748 CONDUIT    133.66     0  01:31      1.74    0.05    0.15
  YS02001748YS02001751 CONDUIT    133.69     0  01:31      1.46    0.07    0.17
  YS02001751YS02001754 CONDUIT    133.68     0  01:31      1.43    0.06    0.28
  YS02001754YS02001757 CONDUIT    137.62     0  01:33      0.69    0.06    0.60
  YS02001757CaochengTiaoxuchi CONDUIT   2137.28     0  01:35      6.73    0.93    0.50
  YS02001759YS02001757 CONDUIT    455.82     0  01:34      1.05    0.32    0.73
  YS02001762YS02001759 CONDUIT    279.30     0  01:36      0.65    0.32    0.67
  YS02001765YS02001762 CONDUIT    278.55     0  01:34      0.78    0.26    0.63
  YS02001767YS02001765 CONDUIT    277.80     0  01:34      0.86    0.35    0.59
  YS02001770YS02001767 CONDUIT    274.68     0  01:35      0.79    1.09    0.58
  YS02001774YS02001770 CONDUIT     35.79     0  01:08      0.56    0.02    0.61
  YS02001779YS02001774 CONDUIT     15.27     0  01:09      0.16    0.01    0.53
  YS02001783YS02001784 CONDUIT    822.53     0  01:35      1.70    1.13    0.92
  YS02001784YS02001785 CONDUIT    817.43     0  01:36      1.83    1.90    0.83
  YS02001786YS02001788 CONDUIT    815.70     0  01:36      2.27    1.57    0.67
  YS02001788YS02001790 CONDUIT    815.23     0  01:36      2.35    0.60    0.65
  YS02001790YS02001791 CONDUIT    852.05     0  01:36      2.92    0.93    0.56
  YS02001791YS02001793 CONDUIT    818.06     0  01:37      5.75    0.35    0.34
  YS02001793JiankangQianchi CONDUIT    906.22     0  01:37     20.18    0.07    0.50
  YS02001882YS02001884 CONDUIT     51.16     0  02:28      0.30    0.06    0.79
  YS02001884YS02001887 CONDUIT     62.42     0  01:15      0.24    0.08    0.89
  YS02001887YS02001890 CONDUIT    206.30     0  01:24      0.30    0.35    0.94
  YS02001890YS02001895 CONDUIT    196.76     0  01:25      0.32    0.09    0.86
  YS02001895YS02001898 CONDUIT    205.46     0  01:24      0.58    0.36    0.73
  YS02001898YS02001901 CONDUIT    213.48     0  01:34      0.50    0.14    0.81
  YS02001901YS02001904 CONDUIT    207.09     0  01:35      0.50    0.32    0.87
  YS02001904YS02001907 CONDUIT    213.94     0  02:14      0.30    0.07    0.93
  YS02001907YS02006553 CONDUIT    560.42     0  01:37      0.62    0.66    1.00
  YS02001910YS02001907 CONDUIT    400.39     0  01:38      0.52    0.23    1.00
  YS02001915YS02001910 CONDUIT    432.47     0  01:33      0.94    0.21    0.88
  YS02001918YS02001915 CONDUIT    139.66     0  02:13      0.44    0.08    0.60
  YS02001920YS02001918 CONDUIT    134.72     0  01:38      0.66    0.13    0.45
  YS02001923YS02001920 CONDUIT    129.15     0  01:37      0.71    0.06    0.35
  YS02001926YS02001923 CONDUIT    127.86     0  01:34      0.84    0.18    0.25
  YS02001929YS02001926 CONDUIT    127.86     0  01:33      0.92    0.06    0.23
  YS02006553YS02006556 CONDUIT    561.35     0  01:37      0.71    0.48    1.00
  YS02006556YS02006558 CONDUIT    561.77     0  01:38      0.72    0.44    1.00
  YS02006558YS02006561 CONDUIT    818.25     0  01:36      3.26    1.81    0.83
  YS02006561YS02001783 CONDUIT    816.69     0  01:36      2.14    0.42    0.71
  YS02163301YS02001633 CONDUIT    878.64     0  02:06      1.12    0.83    1.00
  YS02163601YS02164001 CONDUIT   1117.35     0  01:33      1.42    0.99    1.00
  YS02164001YS02001641 CONDUIT   1118.20     0  01:35      1.42    1.53    1.00
  YSB1154YSB6556       CONDUIT     51.34     0  01:33      0.16    0.09    0.78
  YSB1171HS02004479    CONDUIT     91.15     0  01:34      0.54    0.06    0.73
  YSB1174YSB1171       CONDUIT     40.59     0  01:32      0.11    0.06    0.89
  YSB6556YSB1171       CONDUIT     51.43     0  01:35      0.15    0.05    0.85
  CC-R1                PUMP       683.00     0  00:00              1.00
  CC-R2                PUMP       683.00     0  00:00              1.00
  CC-S1                PUMP       200.00     0  00:00              1.00
  CC-S2                PUMP       200.00     0  00:00              1.00
  JK-R1                PUMP      1000.00     0  00:00              1.00
  JK-R2                PUMP      1000.00     0  00:00              1.00
  JK-S                 PUMP       300.00     0  00:00              1.00
  XR-1                 PUMP        95.00     0  00:00              1.00
  XR-2                 PUMP        95.00     0  00:00              1.00
  XR-3                 PUMP        95.00     0  00:00              1.00
  XR-4                 PUMP        95.00     0  00:00              1.00
  
  
  ***************************
  Flow Classification Summary
  ***************************
  
  -------------------------------------------------------------------------------------
                      Adjusted    ---------- Fraction of Time in Flow Class ---------- 
                       /Actual         Up    Down  Sub   Sup   Up    Down  Norm  Inlet 
  Conduit               Length    Dry  Dry   Dry   Crit  Crit  Crit  Crit  Ltd   Ctrl  
  -------------------------------------------------------------------------------------
  1                       1.00   0.00  0.00  0.00  0.00  1.00  0.00  0.00  0.35  0.00
  HS02004478WS02006287    1.00   0.14  0.00  0.00  0.38  0.48  0.00  0.00  0.60  0.00
  HS02004479HS02004480    1.00   0.06  0.00  0.00  0.94  0.00  0.00  0.00  0.10  0.00
  HS02004480HS02004478    1.00   0.13  0.00  0.00  0.34  0.00  0.00  0.53  0.00  0.00
  HS02004770HS02004777    1.00   0.00  0.13  0.00  0.87  0.00  0.00  0.00  0.01  0.00
  HS02004777HS02004785    1.00   0.00  0.00  0.00  1.00  0.00  0.00  0.00  0.10  0.00
  HS02004785HS02004788    1.00   0.00  0.00  0.00  1.00  0.00  0.00  0.00  0.00  0.00
  HS02004788HS02004792    1.00   0.00  0.00  0.00  0.99  0.01  0.00  0.00  0.98  0.00
  HS02004792HS02004799    1.00   0.00  0.00  0.00  0.99  0.01  0.00  0.00  0.98  0.00
  HS02004799HS02004480    1.00   0.00  0.05  0.00  0.86  0.00  0.08  0.00  0.00  0.00
  HS02004802HS02004478    1.00   0.13  0.00  0.00  0.87  0.00  0.00  0.00  0.01  0.00
  HS02004807HS02004802    1.00   0.13  0.00  0.00  0.86  0.00  0.00  0.01  0.00  0.00
  HS02004817HS02004807    1.00   0.00  0.13  0.00  0.87  0.00  0.00  0.00  0.01  0.00
  HS02004817HS02004824    1.00   0.00  0.00  0.00  1.00  0.00  0.00  0.00  0.79  0.00
  HS02004824HS02004830    1.00   0.00  0.00  0.00  1.00  0.00  0.00  0.00  0.03  0.00
  HS02004830HS02004837    1.00   0.00  0.00  0.00  1.00  0.00  0.00  0.00  0.99  0.00
  HS02004837HS02004842    1.00   0.00  0.00  0.00  1.00  0.00  0.00  0.00  0.11  0.00
  HS02004842HS02004848    1.00   0.00  0.13  0.00  0.87  0.00  0.00  0.00  0.55  0.00
  HS02004848HS02004852    1.00   0.13  0.00  0.00  0.87  0.00  0.00  0.00  0.83  0.00
  HS02004852HS02004856    1.00   0.13  0.00  0.00  0.87  0.00  0.00  0.00  0.65  0.00
  HS02004856HS02004862    1.00   0.00  0.14  0.00  0.86  0.00  0.00  0.00  0.85  0.00
  HS02004862HS02004870    1.00   0.00  0.00  0.00  1.00  0.00  0.00  0.00  0.02  0.00
  HS02004870HS02004876    1.00   0.00  0.00  0.00  0.97  0.02  0.00  0.00  0.95  0.00
  HS02004876HS02004881    1.00   0.02  0.00  0.00  0.56  0.42  0.00  0.00  0.00  0.00
  HS02004881HS02006253    1.00   0.00  0.08  0.00  0.45  0.01  0.00  0.46  0.26  0.00
  HS02004901HS02004770    1.00   0.13  0.00  0.00  0.87  0.00  0.00  0.00  0.00  0.00
  WS02001211WS02001212    1.00   0.00  0.03  0.00  0.97  0.00  0.00  0.00  0.00  0.00
  WS02001212WS02001213    1.00   0.03  0.00  0.00  0.49  0.00  0.48  0.00  0.00  0.00
  WS02001213WS02003059    1.00   0.00  0.00  0.00  0.99  0.00  0.00  0.00  0.00  0.00
  WS02003059WS02003060    1.00   0.00  0.00  0.00  1.00  0.00  0.00  0.00  0.03  0.00
  WS02003060WS02003069    1.00   0.00  0.00  0.00  0.96  0.04  0.00  0.00  0.52  0.00
  WS02003066WSF200        1.00   0.08  0.00  0.00  0.00  0.92  0.00  0.00  0.70  0.00
  WS02003067WS02003066    1.00   0.07  0.01  0.00  0.92  0.00  0.00  0.00  0.00  0.00
  WS02003069WS02003072    1.00   0.00  0.00  0.00  1.00  0.00  0.00  0.00  0.65  0.00
  WS02003072WS02003073    1.00   0.00  0.00  0.00  0.00  0.00  0.00  1.00  0.00  0.00
  WS02004138WS02004139    1.00   0.00  0.01  0.00  0.97  0.01  0.00  0.01  0.98  0.00
  WS02004139WS02001211    1.00   0.00  0.00  0.00  0.99  0.00  0.00  0.00  0.00  0.00
  WS02004401WS02004402    1.00   0.03  0.00  0.00  0.97  0.00  0.00  0.00  0.00  0.00
  WS02004402WS02004403    1.00   0.03  0.00  0.00  0.97  0.00  0.00  0.00  0.00  0.00
  WS02004403WS02004404    1.00   0.00  0.03  0.00  0.97  0.00  0.00  0.00  0.00  0.00
  WS02004404WS02004405    1.00   0.00  0.00  0.00  1.00  0.00  0.00  0.00  0.01  0.00
  WS02004405WS02004406    1.00   0.00  0.00  0.00  1.00  0.00  0.00  0.00  0.00  0.00
  WS02004406WS02004407    1.00   0.00  0.05  0.00  0.95  0.00  0.00  0.00  0.00  0.00
  WS02004407WS02004409    1.00   0.06  0.00  0.00  0.93  0.02  0.00  0.00  0.95  0.00
  WS02004409WS02004410    1.00   0.06  0.00  0.00  0.94  0.00  0.00  0.00  0.00  0.00
  WS02004410WS02004411    1.00   0.06  0.00  0.00  0.94  0.00  0.00  0.00  0.00  0.00
  WS02004411WS02004412    1.00   0.06  0.00  0.00  0.94  0.00  0.00  0.00  0.00  0.00
  WS02004412WS02004413    1.00   0.06  0.00  0.00  0.94  0.00  0.00  0.00  0.00  0.00
  WS02004413WS02003067    1.00   0.06  0.01  0.00  0.00  0.00  0.93  0.00  0.00  0.00
  WS02006109WS02006110    1.00   0.00  0.01  0.00  0.98  0.00  0.01  0.00  0.00  0.00
  WS02006110WS02006113    1.00   0.01  0.01  0.00  0.98  0.00  0.00  0.00  0.00  0.00
  WS02006111WS02006112    1.00   0.02  0.00  0.00  0.97  0.00  0.00  0.00  0.76  0.00
  WS02006112WS02006115    1.00   0.02  0.00  0.00  0.97  0.00  0.01  0.00  0.00  0.00
  WS02006113WS02006111    1.00   0.02  0.00  0.00  0.38  0.60  0.00  0.00  0.09  0.00
  WS02006115WS02006116    1.00   0.02  0.00  0.00  0.96  0.00  0.00  0.01  0.00  0.00
  WS02006116WS02004401    1.00   0.02  0.00  0.00  0.97  0.00  0.00  0.00  0.00  0.00
  WS02006228WS02006109    1.00   0.00  0.00  0.00  1.00  0.00  0.00  0.00  0.00  0.00
  WS02006229WS02006228    1.00   0.00  0.00  0.00  0.99  0.00  0.00  0.01  0.00  0.00
  WS02006230WS02006229    1.00   0.00  0.00  0.00  0.99  0.00  0.00  0.01  0.04  0.00
  WS02006231WS02006230    1.00   0.00  0.00  0.00  0.55  0.00  0.45  0.00  0.00  0.00
  WS02006232WS02006231    1.00   0.00  0.00  0.00  0.99  0.00  0.00  0.00  0.00  0.00
  WS02006234WS02006232    1.00   0.00  0.00  0.00  1.00  0.00  0.00  0.00  0.05  0.00
  WS02006235WS02006234    1.00   0.00  0.00  0.00  0.87  0.00  0.13  0.00  0.00  0.00
  WS02006238WS02006235    1.00   0.00  0.00  0.00  1.00  0.00  0.00  0.00  0.01  0.00
  WS02006239WS02006238    1.00   0.00  0.00  0.00  1.00  0.00  0.00  0.00  0.19  0.00
  WS02006240WS02006239    1.00   0.00  0.00  0.00  0.77  0.00  0.00  0.22  0.04  0.00
  WS02006242WS02006240    1.00   0.00  0.00  0.00  0.99  0.00  0.01  0.00  0.00  0.00
  WS02006243WS02006242    1.00   0.00  0.00  0.00  0.99  0.00  0.00  0.01  0.61  0.00
  WS02006245WS02006243    1.00   0.00  0.00  0.00  0.90  0.00  0.00  0.10  0.01  0.00
  WS02006247WS02006245    1.00   0.00  0.00  0.00  0.98  0.00  0.00  0.02  0.00  0.00
  WS02006248WS02006247    1.00   0.00  0.00  0.00  0.99  0.00  0.00  0.01  0.61  0.00
  WS02006249WS02006248    1.00   0.00  0.00  0.00  0.60  0.00  0.40  0.00  0.00  0.00
  WS02006251WS02006249    1.00   0.00  0.00  0.00  1.00  0.00  0.00  0.00  0.62  0.00
  WS02006252WS02006251    1.00   0.00  0.36  0.00  0.39  0.00  0.25  0.00  0.00  0.00
  WS02006253WS02006251    1.00   0.00  0.00  0.00  0.99  0.00  0.01  0.00  0.00  0.00
  WS02006256WS02006235    1.00   0.00  0.00  0.00  0.99  0.01  0.00  0.00  0.01  0.00
  WS02006280WS02006229    1.00   0.14  0.00  0.00  0.26  0.13  0.00  0.48  0.01  0.00
  WS02006284WS02006280    1.00   0.14  0.00  0.00  0.00  0.00  0.00  0.86  0.00  0.00
  WS02006287WS02006284    1.00   0.12  0.02  0.00  0.30  0.56  0.00  0.00  0.63  0.00
  WSF200WS02003060        1.00   0.00  0.08  0.00  0.46  0.46  0.00  0.00  0.64  0.00
  YS02001580YS02001583    1.00   0.18  0.39  0.00  0.42  0.00  0.00  0.00  0.68  0.00
  YS02001583YS02001586    1.00   0.29  0.22  0.00  0.48  0.00  0.01  0.00  0.68  0.00
  YS02001586YS02001590    1.00   0.13  0.00  0.00  0.62  0.02  0.00  0.22  0.33  0.00
  YS02001590YS02001593    1.00   0.13  0.00  0.00  0.34  0.00  0.53  0.00  0.00  0.00
  YS02001593YS02001596    1.00   0.13  0.00  0.00  0.40  0.01  0.00  0.46  0.03  0.00
  YS02001596YS02001600    1.00   0.13  0.00  0.00  0.46  0.01  0.00  0.39  0.03  0.00
  YS02001600YS02001601    1.00   0.13  0.00  0.00  0.87  0.00  0.00  0.00  0.56  0.00
  YS02001601YS02001602    1.00   0.13  0.00  0.00  0.87  0.00  0.00  0.00  0.00  0.00
  YS02001602YS02001605    1.00   0.13  0.00  0.00  0.87  0.00  0.00  0.00  0.00  0.00
  YS02001605YS02001607    1.00   0.13  0.00  0.00  0.87  0.00  0.00  0.00  0.00  0.00
  YS02001607YS02001610    1.00   0.13  0.00  0.00  0.87  0.00  0.00  0.00  0.00  0.00
  YS02001610YS02001613    1.00   0.13  0.00  0.00  0.87  0.00  0.00  0.00  0.00  0.00
  YS02001613YS02001616    1.00   0.13  0.00  0.00  0.87  0.00  0.00  0.00  0.00  0.00
  YS02001616YS02001619    1.00   0.13  0.00  0.00  0.87  0.00  0.00  0.00  0.00  0.00
  YS02001619YS02001622    1.00   0.13  0.00  0.00  0.87  0.00  0.00  0.00  0.28  0.00
  YS02001622YS02001625    1.00   0.13  0.00  0.00  0.87  0.00  0.00  0.00  0.01  0.00
  YS02001625YS02001629    1.00   0.13  0.01  0.00  0.42  0.00  0.44  0.00  0.00  0.00
  YS02001629YS02163301    1.00   0.13  0.00  0.00  0.86  0.00  0.00  0.00  0.00  0.00
  YS02001633YS02163601    1.00   0.00  0.01  0.00  0.99  0.00  0.00  0.00  0.13  0.00
  YS02001641YS02001644    1.00   0.00  0.00  0.00  1.00  0.00  0.00  0.00  0.00  0.00
  YS02001644YS02001647    1.00   0.00  0.14  0.00  0.86  0.00  0.00  0.00  0.00  0.00
  YS02001647YS02001649    1.00   0.00  0.14  0.00  0.57  0.29  0.00  0.00  0.56  0.00
  YS02001649YS02001757    1.00   0.00  0.00  0.00  0.57  0.43  0.00  0.00  0.56  0.00
  YS02001652YS02001649    1.00   0.00  0.00  0.00  0.99  0.01  0.00  0.00  0.70  0.00
  YS02001655YS02001652    1.00   0.00  0.00  0.00  0.45  0.01  0.00  0.54  0.15  0.00
  YS02001658YS02001655    1.00   0.00  0.13  0.00  0.33  0.54  0.00  0.00  0.73  0.00
  YS02001661YS02001658    1.00   0.13  0.00  0.00  0.23  0.64  0.00  0.00  0.81  0.00
  YS02001664YS02001661    1.00   0.13  0.00  0.00  0.45  0.42  0.00  0.00  0.87  0.00
  YS02001745YS02001748    1.00   0.00  0.00  0.00  0.00  0.00  0.00  1.00  0.00  0.00
  YS02001748YS02001751    1.00   0.00  0.00  0.00  0.48  0.52  0.00  0.00  0.91  0.00
  YS02001751YS02001754    1.00   0.00  0.00  0.00  0.37  0.03  0.00  0.60  0.22  0.00
  YS02001754YS02001757    1.00   0.00  0.00  0.00  1.00  0.00  0.00  0.00  0.77  0.00
  YS02001757CaochengTiaoxuchi    1.00   0.00  0.00  0.00  0.12  0.88  0.00  0.00  0.23  0.00
  YS02001759YS02001757    1.00   0.00  0.00  0.00  1.00  0.00  0.00  0.00  0.61  0.00
  YS02001762YS02001759    1.00   0.00  0.00  0.00  1.00  0.00  0.00  0.00  0.03  0.00
  YS02001765YS02001762    1.00   0.00  0.00  0.00  1.00  0.00  0.00  0.00  0.68  0.00
  YS02001767YS02001765    1.00   0.00  0.00  0.00  1.00  0.00  0.00  0.00  0.00  0.00
  YS02001770YS02001767    1.00   0.00  0.00  0.00  1.00  0.00  0.00  0.00  0.00  0.00
  YS02001774YS02001770    1.00   0.00  0.13  0.00  0.78  0.00  0.09  0.00  0.00  0.00
  YS02001779YS02001774    1.00   0.00  0.00  0.00  1.00  0.00  0.00  0.00  0.74  0.00
  YS02001783YS02001784    1.00   0.00  0.14  0.00  0.86  0.00  0.00  0.00  0.54  0.00
  YS02001784YS02001785    1.00   0.00  0.00  0.00  1.00  0.00  0.00  0.00  0.13  0.00
  YS02001786YS02001788    1.00   0.00  0.00  0.00  0.47  0.53  0.00  0.00  0.00  0.00
  YS02001788YS02001790    1.00   0.00  0.00  0.00  0.14  0.86  0.00  0.00  0.75  0.00
  YS02001790YS02001791    1.00   0.00  0.00  0.00  0.01  0.99  0.00  0.00  0.21  0.00
  YS02001791YS02001793    1.00   0.00  0.00  0.00  0.00  1.00  0.00  0.00  0.00  0.00
  YS02001793JiankangQianchi    1.00   0.00  0.00  0.00  0.11  0.89  0.00  0.00  0.57  0.00
  YS02001882YS02001884    1.00   0.14  0.00  0.00  0.86  0.00  0.00  0.00  0.00  0.00
  YS02001884YS02001887    1.00   0.09  0.04  0.00  0.87  0.00  0.00  0.00  0.00  0.00
  YS02001887YS02001890    1.00   0.00  0.00  0.00  0.96  0.00  0.04  0.00  0.00  0.00
  YS02001890YS02001895    1.00   0.00  0.13  0.00  0.86  0.00  0.00  0.00  0.00  0.00
  YS02001895YS02001898    1.00   0.14  0.00  0.00  0.86  0.00  0.00  0.00  0.00  0.00
  YS02001898YS02001901    1.00   0.14  0.00  0.00  0.86  0.00  0.00  0.00  0.00  0.00
  YS02001901YS02001904    1.00   0.14  0.00  0.00  0.86  0.00  0.00  0.00  0.00  0.00
  YS02001904YS02001907    1.00   0.00  0.14  0.00  0.86  0.00  0.00  0.00  0.00  0.00
  YS02001907YS02006553    1.00   0.00  0.02  0.00  0.97  0.00  0.00  0.00  0.00  0.00
  YS02001910YS02001907    1.00   0.00  0.00  0.00  0.96  0.01  0.00  0.03  0.11  0.00
  YS02001915YS02001910    1.00   0.00  0.00  0.00  0.97  0.03  0.00  0.00  0.11  0.00
  YS02001918YS02001915    1.00   0.00  0.00  0.00  0.97  0.02  0.00  0.00  0.66  0.00
  YS02001920YS02001918    1.00   0.00  0.00  0.00  1.00  0.00  0.00  0.00  0.00  0.00
  YS02001923YS02001920    1.00   0.00  0.00  0.00  1.00  0.00  0.00  0.00  0.96  0.00
  YS02001926YS02001923    1.00   0.00  0.10  0.00  0.00  0.00  0.90  0.00  0.00  0.00
  YS02001929YS02001926    1.00   0.00  0.13  0.00  0.87  0.00  0.00  0.00  0.87  0.00
  YS02006553YS02006556    1.00   0.01  0.00  0.00  0.99  0.00  0.00  0.00  0.03  0.00
  YS02006556YS02006558    1.00   0.00  0.00  0.00  1.00  0.00  0.00  0.00  0.00  0.00
  YS02006558YS02006561    1.00   0.14  0.00  0.00  0.00  0.86  0.00  0.00  0.15  0.00
  YS02006561YS02001783    1.00   0.14  0.00  0.00  0.20  0.66  0.00  0.00  0.63  0.00
  YS02163301YS02001633    1.00   0.00  0.13  0.00  0.87  0.00  0.00  0.00  0.00  0.00
  YS02163601YS02164001    1.00   0.00  0.11  0.00  0.89  0.00  0.00  0.00  0.00  0.00
  YS02164001YS02001641    1.00   0.01  0.10  0.00  0.89  0.00  0.00  0.00  0.05  0.00
  YSB1154YSB6556          1.00   0.13  0.00  0.00  0.87  0.00  0.00  0.00  0.01  0.00
  YSB1171HS02004479       1.00   0.06  0.00  0.00  0.92  0.00  0.00  0.02  0.09  0.00
  YSB1174YSB1171          1.00   0.08  0.04  0.00  0.89  0.00  0.00  0.00  0.00  0.00
  YSB6556YSB1171          1.00   0.06  0.07  0.00  0.87  0.00  0.00  0.00  0.00  0.00
  
  
  *************************
  Conduit Surcharge Summary
  *************************
  
  ----------------------------------------------------------------------------
                                                           Hours        Hours 
                         --------- Hours Full --------   Above Full   Capacity
  Conduit                Both Ends  Upstream  Dnstream   Normal Flow   Limited
  ----------------------------------------------------------------------------
  HS02004480HS02004478        0.01      0.01      0.01      1.84         0.01
  HS02004785HS02004788        0.01      0.01      0.01      1.60         0.01
  HS02004817HS02004807        0.01      0.01      1.01      0.01         0.01
  HS02004817HS02004824        0.01      0.01      1.01      0.01         0.01
  HS02004876HS02004881        0.01      0.01      0.01      1.61         0.01
  HS02004881HS02006253        0.01      0.01      1.70      0.01         0.01
  WS02003072WS02003073        0.01      0.01      0.01      2.36         0.01
  WS02004401WS02004402        1.71      1.71      1.72      1.58         1.38
  WS02004402WS02004403        1.72      1.72      1.73      1.73         1.70
  WS02004403WS02004404        1.73      1.73      1.78      0.01         0.01
  WS02004404WS02004405        1.77      1.78      1.77      3.31         1.77
  WS02004405WS02004406        1.76      1.77      1.76      1.93         1.76
  WS02004406WS02004407        0.01      0.01      1.76      0.01         0.01
  WS02004409WS02004410        0.01      0.01      0.01      1.68         0.01
  WS02004410WS02004411        0.01      0.01      0.01      1.70         0.01
  WS02004411WS02004412        0.01      0.01      0.01      1.71         0.01
  WS02004412WS02004413        0.01      0.01      1.30      0.01         0.01
  WS02004413WS02003067        0.01      0.01      1.30      0.01         0.01
  WS02006109WS02006110        1.88      1.88      2.18      1.88         0.01
  WS02006110WS02006113        1.19      1.19      2.14      0.01         0.01
  WS02006111WS02006112        1.15      1.15      2.37      0.01         0.01
  WS02006112WS02006115        1.68      1.68      1.95      0.01         0.01
  WS02006113WS02006111        1.17      1.19      1.17      1.58         1.16
  WS02006115WS02006116        1.68      1.68      1.69      1.69         1.66
  WS02006116WS02004401        1.71      1.71      1.71      1.72         1.69
  WS02006228WS02006109        2.08      2.18      2.08      2.63         2.08
  WS02006229WS02006228        2.05      2.12      2.05      2.43         2.05
  WS02006230WS02006229        2.28      2.33      2.28      3.47         1.35
  WS02006231WS02006230        1.76      1.76      1.80      2.99         0.80
  WS02006232WS02006231        1.78      1.78      2.10      0.01         0.01
  WS02006234WS02006232        1.84      1.84      2.10      0.01         0.06
  WS02006235WS02006234        1.79      1.79      1.91      2.75         0.62
  WS02006238WS02006235        1.94      1.94      2.06      0.01         0.11
  WS02006239WS02006238        1.96      2.01      1.98      0.35         0.67
  WS02006240WS02006239        1.88      1.91      1.89      0.35         0.59
  WS02006242WS02006240        1.88      1.88      2.07      0.81         0.34
  WS02006243WS02006242        1.90      1.90      2.02      0.01         0.02
  WS02006245WS02006243        1.87      1.88      1.88      0.40         0.56
  WS02006247WS02006245        1.87      1.93      1.87      1.91         1.07
  WS02006248WS02006247        1.86      1.86      1.90      0.03         0.08
  WS02006249WS02006248        1.84      1.84      1.88      1.34         0.01
  WS02006251WS02006249        1.88      1.91      1.88      2.19         1.86
  WS02006252WS02006251        2.34      2.34      2.34      2.34         0.01
  WS02006253WS02006251        1.90      1.90      1.96      0.01         0.01
  WS02006256WS02006235        2.68      2.85      6.13      0.20         0.24
  YS02001580YS02001583        0.01      0.01      0.06      0.01         0.01
  YS02001583YS02001586        0.01      0.01      0.90      0.01         0.01
  YS02001586YS02001590        0.93      0.93      1.15      0.01         0.01
  YS02001590YS02001593        1.15      1.15      1.19      1.27         0.01
  YS02001593YS02001596        1.17      1.17      1.42      0.01         0.01
  YS02001596YS02001600        1.63      1.63      1.76      0.01         0.01
  YS02001600YS02001601        1.80      1.80      1.98      0.01         0.01
  YS02001601YS02001602        1.92      1.92      2.01      1.81         0.01
  YS02001602YS02001605        1.88      1.88      1.92      2.56         0.01
  YS02001605YS02001607        1.85      1.88      1.85      1.96         1.85
  YS02001607YS02001610        1.03      1.03      1.10      0.01         0.01
  YS02001610YS02001613        0.98      0.98      1.10      0.01         0.01
  YS02001613YS02001616        0.78      0.78      0.98      0.01         0.01
  YS02001616YS02001619        0.74      0.74      0.78      0.01         0.01
  YS02001619YS02001622        0.72      0.74      0.72      1.25         0.72
  YS02001622YS02001625        0.72      0.72      1.29      0.01         0.01
  YS02001625YS02001629        0.01      0.01      1.29      0.01         0.01
  YS02001629YS02163301        1.25      1.25      1.27      0.85         0.70
  YS02001633YS02163601        1.31      1.31      1.39      1.07         1.06
  YS02001641YS02001644        0.80      1.07      0.80      2.01         0.80
  YS02001644YS02001647        0.01      0.01      0.80      0.01         0.01
  YS02001770YS02001767        0.01      0.01      0.01      0.24         0.01
  YS02001783YS02001784        0.01      0.01      0.01      0.85         0.01
  YS02001784YS02001785        0.01      0.01      0.01      1.68         0.01
  YS02001786YS02001788        0.01      0.01      0.01      1.30         0.01
  YS02001904YS02001907        0.01      0.01      1.25      0.01         0.01
  YS02001907YS02006553        1.69      1.69      1.75      0.01         0.01
  YS02001910YS02001907        0.01      0.01      1.20      0.01         0.01
  YS02001915YS02001910        0.01      0.01      0.01      0.01         0.01
  YS02006553YS02006556        0.76      0.76      1.24      0.01         0.01
  YS02006556YS02006558        0.95      0.95      1.27      0.01         0.01
  YS02006558YS02006561        0.01      0.69      0.01      1.56         0.01
  YS02163301YS02001633        1.27      1.27      1.37      0.01         0.01
  YS02163601YS02164001        1.11      1.11      1.39      0.01         0.01
  YS02164001YS02001641        1.07      1.11      1.07      1.59         1.07
  YSB1174YSB1171              0.01      0.01      0.19      0.01         0.01
  YSB6556YSB1171              0.01      0.01      1.19      0.01         0.01
  
  
  ***************
  Pumping Summary
  ***************
  
  ---------------------------------------------------------------------------------------------------------
                                                  Min       Avg       Max     Total     Power    % Time Off
                        Percent   Number of      Flow      Flow      Flow    Volume     Usage    Pump Curve
  Pump                 Utilized   Start-Ups       LPS       LPS       LPS  10^6 ltr     Kw-hr    Low   High
  ---------------------------------------------------------------------------------------------------------
  CC-R1                   29.22           6      0.00    683.00    683.00     5.748     89.40    0.0  100.0
  CC-R2                   29.22           6      0.00    683.00    683.00     5.748     89.40    0.0  100.0
  CC-S1                   29.22           6      0.00    200.00    200.00     1.683     14.83    0.0   77.7
  CC-S2                   29.22           6      0.00    200.00    200.00     1.683     14.83    0.0   77.7
  JK-R1                    8.74         478      0.00    993.54   1000.00     2.480      6.02    0.0    0.0
  JK-R2                    8.74         478      0.00    993.54   1000.00     2.480      6.02    0.0    0.0
  JK-S                     8.74         478      0.00    299.76    300.00     0.754     17.21    0.0    0.0
  XR-1                    97.91           2      0.00     95.00     95.00     2.679      9.63    0.0    0.0
  XR-2                    93.94           2      0.00     95.00     95.00     2.570      8.78    0.0    0.0
  XR-3                     0.00           1      0.00     95.00     95.00     0.000      0.00    0.0    0.0
  XR-4                     0.00           1      0.00     95.00     95.00     0.000      0.00    0.0    0.0
  

  Analysis begun on:  Thu Jul 20 11:18:11 2023
  Analysis ended on:  Thu Jul 20 11:18:16 2023
  Total elapsed time: 00:00:05