
  OWA STORM WATER MANAGEMENT MODEL - VERSION v5.1.14 (OWA 2022-07-31)
  --------------------------------------------------------------

  WARNING 04: minimum elevation drop used for Conduit WS02004404WS02004405
  WARNING 03: negative offset ignored for Link YS02001904YS02001907
  
  *********************************************************
  NOTE: The summary statistics displayed in this report are
  based on results found at every computational time step,  
  not just on results from each reporting time step.
  *********************************************************
  
  ****************
  Analysis Options
  ****************
  Flow Units ............... LPS
  Process Models:
    Rainfall/Runoff ........ YES
    RDII ................... NO
    Snowmelt ............... NO
    Groundwater ............ NO
    Flow Routing ........... YES
    Ponding Allowed ........ NO
    Water Quality .......... NO
  Infiltration Method ...... HORTON
  Flow Routing Method ...... DYNWAVE
  Surcharge Method ......... EXTRAN
  Starting Date ............ 08/28/2015 08:00:00
  Ending Date .............. 08/28/2015 16:00:00
  Antecedent Dry Days ...... 8.0
  Report Time Step ......... 00:01:00
  Wet Time Step ............ 00:01:00
  Dry Time Step ............ 00:01:00
  Routing Time Step ........ 30.00 sec
  Variable Time Step ....... YES
  Maximum Trials ........... 8
  Number of Threads ........ 4
  Head Tolerance ........... 0.001500 m
  
  
  **************************        Volume         Depth
  Runoff Quantity Continuity     hectare-m            mm
  **************************     ---------       -------
  Total Precipitation ......         6.438       106.270
  Evaporation Loss .........         0.000         0.000
  Infiltration Loss ........         0.260         4.293
  Surface Runoff ...........         6.117       100.983
  Final Storage ............         0.061         1.010
  Continuity Error (%) .....        -0.016
  
  
  **************************        Volume        Volume
  Flow Routing Continuity        hectare-m      10^6 ltr
  **************************     ---------     ---------
  Dry Weather Inflow .......         0.630         6.296
  Wet Weather Inflow .......         6.116        61.160
  Groundwater Inflow .......         0.000         0.000
  RDII Inflow ..............         0.000         0.000
  External Inflow ..........         0.105         1.045
  External Outflow .........         4.206        42.056
  Flooding Loss ............         2.793        27.930
  Evaporation Loss .........         0.000         0.000
  Exfiltration Loss ........         0.000         0.000
  Initial Stored Volume ....         0.303         3.031
  Final Stored Volume ......         0.200         1.999
  Continuity Error (%) .....        -0.635
  
  
  *************************
  Highest Continuity Errors
  *************************
  Node WS02006256 (6.65%)
  Node JK-storage (-5.83%)
  Node YS02001583 (-5.81%)
  Node YS02001884 (5.27%)
  Node YS02001774 (1.63%)
  
  
  ***************************
  Time-Step Critical Elements
  ***************************
  Link YS02001793JiankangQianchi (34.70%)
  Link WS02006280WS02006229 (28.37%)
  Link WS02006238WS02006235 (8.86%)
  Link YS02001783YS02001784 (4.79%)
  Link WS02006252WS02006251 (4.76%)
  
  
  ********************************
  Highest Flow Instability Indexes
  ********************************
  Link WS02006252WS02006251 (60)
  Link WS02004404WS02004405 (53)
  Link WS02006229WS02006228 (50)
  Link YS02001602YS02001605 (48)
  Link WS02004403WS02004404 (45)
  
  
  *************************
  Routing Time Step Summary
  *************************
  Minimum Time Step           :     0.01 sec
  Average Time Step           :     2.07 sec
  Maximum Time Step           :     6.46 sec
  Percent in Steady State     :    -0.00
  Average Iterations per Step :     5.44
  Percent Not Converging      :    47.13
  
  
  ***************************
  Subcatchment Runoff Summary
  ***************************
  
  ------------------------------------------------------------------------------------------------------------------------------
                            Total      Total      Total      Total     Imperv       Perv      Total       Total     Peak  Runoff
                           Precip      Runon       Evap      Infil     Runoff     Runoff     Runoff      Runoff   Runoff   Coeff
  Subcatchment                 mm         mm         mm         mm         mm         mm         mm    10^6 ltr      LPS
  ------------------------------------------------------------------------------------------------------------------------------
  sub0                     106.27       0.00       0.00       1.06      97.60       6.38     103.98        0.08    17.00   0.978
  sub1                     106.27       0.00       0.00       1.84      93.34       9.85     103.18        0.69   136.08   0.971
  sub2                     106.27       0.00       0.00       8.12      66.05      31.20      97.25        0.91   152.85   0.915
  sub3                     106.27       0.00       0.00       8.80      66.00      30.52      96.52        2.17   348.42   0.908
  sub4                     106.27       0.00       0.00       2.06      93.15       9.63     102.79        2.14   384.92   0.967
  sub5                     106.27       0.00       0.00       1.13      97.53       6.31     103.84        1.18   233.50   0.977
  sub7                     106.27       0.00       0.00       1.43      95.47       8.14     103.61        0.35    70.25   0.975
  sub8                     106.27       0.00       0.00       1.44      95.46       8.12     103.58        0.66   132.66   0.975
  sub9                     106.27       0.00       0.00       1.45      95.46       8.12     103.57        0.50    99.74   0.975
  sub10                    106.27       0.00       0.00       1.29      96.49       7.21     103.70        1.14   227.81   0.976
  sub11                    106.27       0.00       0.00       1.27      96.51       7.24     103.75        1.21   241.90   0.976
  sub12                    106.27       0.00       0.00       2.06      91.29      11.75     103.05        0.90   182.10   0.970
  sub14                    106.27       0.00       0.00       1.45      95.45       8.11     103.57        0.99   197.21   0.975
  sub15                    106.27       0.00       0.00       5.72      73.42      26.16      99.58        1.71   322.40   0.937
  sub16                    106.27       0.00       0.00       5.93      70.30      29.15      99.45        1.04   202.67   0.936
  sub17                    106.27       0.00       0.00       5.78      71.35      28.23      99.58        0.85   165.87   0.937
  sub22                    106.27       0.00       0.00       8.65      59.80      37.05      96.85        6.12  1080.16   0.911
  sub23                    106.27       0.00       0.00       7.07      66.09      32.25      98.35        4.69   872.56   0.925
  sub60                    106.27       0.00       0.00       1.95      92.32      10.80     103.12        1.36   272.41   0.970
  sub61                    106.27       0.00       0.00       2.84      87.08      15.23     102.31        1.88   376.96   0.963
  sub62                    106.27       0.00       0.00       1.30      96.48       7.20     103.69        2.84   564.46   0.976
  sub63                    106.27       0.00       0.00       5.26      74.49      25.56     100.05        2.27   440.86   0.941
  sub64                    106.27       0.00       0.00       2.66      89.12      13.29     102.41        2.46   479.47   0.964
  sub65                    106.27       0.00       0.00       2.30      91.20      11.52     102.72        2.83   547.07   0.967
  sub66                    106.27       0.00       0.00       6.45      74.37      24.37      98.73        4.60   776.30   0.929
  sub67                    106.27       0.00       0.00       1.24      96.54       7.27     103.80        1.93   389.28   0.977
  sub68                    106.27       0.00       0.00       2.35      90.21      12.53     102.74        2.83   564.56   0.967
  sub69                    106.27       0.00       0.00       2.15      90.22      13.79     104.01        3.85   736.18   0.979
  sub70                    106.27       0.00       0.00       7.03      69.96      29.11      99.07        2.86   455.12   0.932
  sub71                    106.27       0.00       0.00       1.34      96.44       7.16     103.60        2.71   526.91   0.975
  sub72                    106.27       0.00       0.00       1.19      97.42       6.25     103.67        1.43   268.16   0.975
  
  
  ******************
  Node Depth Summary
  ******************
  
  ---------------------------------------------------------------------------------
                                 Average  Maximum  Maximum  Time of Max    Reported
                                   Depth    Depth      HGL   Occurrence   Max Depth
  Node                 Type       Meters   Meters   Meters  days hr:min      Meters
  ---------------------------------------------------------------------------------
  HS02004478           JUNCTION     0.56     1.54    10.77     0  01:14        1.47
  HS02004479           JUNCTION     0.67     1.72    10.93     0  01:11        1.72
  HS02004480           JUNCTION     0.64     1.68    10.92     0  01:11        1.63
  HS02004770           JUNCTION     0.62     1.42    11.25     0  01:11        1.42
  HS02004777           JUNCTION     0.64     1.48    11.28     0  01:11        1.48
  HS02004785           JUNCTION     0.53     1.49    11.39     0  01:11        1.32
  HS02004788           JUNCTION     0.51     1.42    11.32     0  01:11        1.37
  HS02004792           JUNCTION     0.64     1.60    11.12     0  01:09        1.60
  HS02004799           JUNCTION     0.73     1.76    10.97     0  01:11        1.76
  HS02004802           JUNCTION     0.66     1.74    10.87     0  01:14        1.60
  HS02004807           JUNCTION     0.63     1.92    11.09     0  01:14        1.60
  HS02004817           JUNCTION     0.93     2.44    11.29     0  01:14        1.93
  HS02004824           JUNCTION     0.48     2.01    11.41     0  01:14        1.42
  HS02004830           JUNCTION     0.46     2.03    11.50     0  01:14        1.42
  HS02004837           JUNCTION     0.40     2.04    11.62     0  01:14        1.28
  HS02004842           JUNCTION     0.68     2.22    11.49     0  01:14        1.55
  HS02004848           JUNCTION     0.37     2.07    11.67     0  01:14        1.23
  HS02004852           JUNCTION     0.39     2.10    11.61     0  01:14        1.34
  HS02004856           JUNCTION     0.44     2.07    11.50     0  01:14        1.51
  HS02004862           JUNCTION     0.41     2.00    11.38     0  01:14        1.36
  HS02004870           JUNCTION     0.42     2.10    11.39     0  01:14        1.35
  HS02004876           JUNCTION     0.51     2.26    11.29     0  01:14        2.26
  HS02004881           JUNCTION     0.44     1.92    10.94     0  01:14        1.26
  HS02004901           JUNCTION     0.63     1.42    11.24     0  01:11        1.42
  WS02001211           JUNCTION     0.68     0.86     5.70     0  01:20        0.86
  WS02001212           JUNCTION     0.42     0.64     5.70     0  01:19        0.60
  WS02001213           JUNCTION     0.66     0.97     5.73     0  01:19        0.97
  WS02003059           JUNCTION     0.73     0.97     5.66     0  01:21        0.95
  WS02003060           JUNCTION     0.46     0.69     5.62     0  01:22        0.69
  WS02003066           JUNCTION     0.29     0.46     6.01     0  01:14        0.45
  WS02003067           JUNCTION     0.64     0.94     6.26     0  01:14        0.94
  WS02003069           JUNCTION     0.52     0.77     5.36     0  01:22        0.77
  WS02003072           JUNCTION     0.57     0.81     5.18     0  01:21        0.81
  WS02003073           JUNCTION     0.35     0.51     4.58     0  01:22        0.51
  WS02004138           JUNCTION     0.13     0.14     7.39     0  00:32        0.14
  WS02004139           JUNCTION     0.61     0.78     5.69     0  01:17        0.77
  WS02004401           JUNCTION     1.05     2.66     8.66     0  01:11        1.78
  WS02004402           JUNCTION     1.04     2.74     8.70     0  01:11        1.72
  WS02004403           JUNCTION     1.03     3.03     8.96     0  01:11        1.80
  WS02004404           JUNCTION     1.07     3.17     9.02     0  01:11        1.66
  WS02004405           JUNCTION     1.05     3.18     9.03     0  01:11        1.60
  WS02004406           JUNCTION     1.01     2.45     8.28     0  01:11        1.49
  WS02004407           JUNCTION     0.43     0.84     7.15     0  01:16        0.84
  WS02004409           JUNCTION     0.76     1.67     7.44     0  01:13        1.33
  WS02004410           JUNCTION     0.74     1.78     7.50     0  01:13        1.24
  WS02004411           JUNCTION     0.72     1.82     7.50     0  01:13        1.16
  WS02004412           JUNCTION     0.70     1.50     7.14     0  01:13        1.08
  WS02004413           JUNCTION     0.80     2.70     8.17     0  01:13        1.13
  WS02006109           JUNCTION     1.50     2.64     9.26     0  01:11        2.64
  WS02006110           JUNCTION     1.36     2.63     9.22     0  01:11        2.44
  WS02006111           JUNCTION     0.77     2.13     8.84     0  01:11        1.64
  WS02006112           JUNCTION     1.34     2.68     8.56     0  01:11        2.27
  WS02006113           JUNCTION     0.87     2.23     9.12     0  01:11        1.73
  WS02006115           JUNCTION     1.02     3.03     9.17     0  01:11        1.83
  WS02006116           JUNCTION     1.07     2.89     8.93     0  01:11        1.83
  WS02006228           JUNCTION     1.64     3.03     9.68     0  01:11        3.03
  WS02006229           JUNCTION     1.69     3.25     9.94     0  01:11        3.23
  WS02006230           JUNCTION     1.51     2.65     9.39     0  01:10        2.65
  WS02006231           JUNCTION     1.17     2.24     9.36     0  01:09        2.24
  WS02006232           JUNCTION     1.23     2.18     9.22     0  01:09        2.18
  WS02006234           JUNCTION     1.09     1.96     9.12     0  01:10        1.96
  WS02006235           JUNCTION     1.08     2.00     9.16     0  01:10        2.00
  WS02006238           JUNCTION     1.10     2.15     9.29     0  01:32        2.15
  WS02006239           JUNCTION     1.01     2.03     9.24     0  01:10        2.03
  WS02006240           JUNCTION     0.94     2.10     9.39     0  01:10        2.10
  WS02006242           JUNCTION     0.95     1.55     8.82     0  01:10        1.55
  WS02006243           JUNCTION     0.82     1.48     8.90     0  01:10        1.48
  WS02006245           JUNCTION     0.78     1.56     9.04     0  01:11        1.56
  WS02006247           JUNCTION     0.78     1.47     8.97     0  01:11        1.24
  WS02006248           JUNCTION     0.71     1.10     8.69     0  01:11        1.10
  WS02006249           JUNCTION     0.72     1.09     8.69     0  01:11        1.09
  WS02006251           JUNCTION     1.11     2.18     9.85     0  01:32        2.18
  WS02006252           JUNCTION     0.80     1.50     9.74     0  00:00        1.50
  WS02006253           JUNCTION     1.28     3.25    10.89     0  01:14        2.67
  WS02006256           JUNCTION     1.32     2.35     9.28     0  00:00        2.35
  WS02006280           JUNCTION     0.71     1.78    10.05     0  01:32        1.78
  WS02006284           JUNCTION     0.92     1.93    10.33     0  01:14        1.86
  WS02006287           JUNCTION     0.66     1.74    10.69     0  01:11        1.63
  WSF200               JUNCTION     0.31     0.57     5.81     0  01:13        0.57
  YS02001580           JUNCTION     0.31     1.05     9.59     0  01:12        0.82
  YS02001583           JUNCTION     0.35     1.14     9.64     0  01:12        0.90
  YS02001586           JUNCTION     0.50     1.13     9.30     0  01:12        1.13
  YS02001590           JUNCTION     0.64     1.40     9.26     0  01:12        1.40
  YS02001593           JUNCTION     0.57     1.46     9.32     0  01:10        1.46
  YS02001596           JUNCTION     0.74     1.80     9.22     0  01:10        1.80
  YS02001600           JUNCTION     0.85     1.87     9.00     0  01:10        1.87
  YS02001601           JUNCTION     1.04     2.06     8.90     0  01:10        2.06
  YS02001602           JUNCTION     0.92     1.87     8.77     0  01:12        1.87
  YS02001605           JUNCTION     0.87     1.78     8.68     0  01:12        1.78
  YS02001607           JUNCTION     0.82     1.68     8.53     0  02:51        1.68
  YS02001610           JUNCTION     0.86     1.68     8.48     0  01:12        1.68
  YS02001613           JUNCTION     0.82     1.70     8.54     0  01:27        1.70
  YS02001616           JUNCTION     0.75     1.61     8.52     0  01:12        1.61
  YS02001619           JUNCTION     0.73     1.61     8.54     0  01:12        1.60
  YS02001622           JUNCTION     0.72     1.62     8.52     0  01:12        1.55
  YS02001625           JUNCTION     0.97     1.78     8.38     0  01:12        1.78
  YS02001629           JUNCTION     0.89     1.85     8.40     0  01:12        1.85
  YS02001633           JUNCTION     0.95     2.08     8.53     0  02:36        2.08
  YS02001641           JUNCTION     0.88     2.01     8.45     0  02:32        1.96
  YS02001644           JUNCTION     0.86     1.92     8.35     0  02:32        1.82
  YS02001647           JUNCTION     0.64     1.83     8.44     0  02:47        1.56
  YS02001649           JUNCTION     0.71     2.02     8.41     0  02:47        1.90
  YS02001652           JUNCTION     0.57     2.16     8.76     0  01:50        2.16
  YS02001655           JUNCTION     0.45     2.20     9.05     0  01:50        2.20
  YS02001658           JUNCTION     0.31     2.30     9.44     0  02:55        1.87
  YS02001661           JUNCTION     0.22     0.65     8.06     0  02:56        0.64
  YS02001664           JUNCTION     0.10     0.25     8.18     0  01:26        0.25
  YS02001745           JUNCTION     0.10     0.43     7.95     0  02:54        0.40
  YS02001748           JUNCTION     0.28     0.84     7.92     0  02:54        0.82
  YS02001751           JUNCTION     0.37     1.33     8.21     0  02:56        1.00
  YS02001754           JUNCTION     0.51     1.52     8.12     0  02:56        1.26
  YS02001757           JUNCTION     0.72     1.83     8.09     0  02:47        1.66
  YS02001759           JUNCTION     0.65     1.77     8.13     0  02:47        1.63
  YS02001762           JUNCTION     0.64     1.71     8.11     0  02:56        1.68
  YS02001765           JUNCTION     0.61     1.69     8.14     0  02:42        1.69
  YS02001767           JUNCTION     0.60     1.70     8.19     0  02:42        1.70
  YS02001770           JUNCTION     0.61     1.95     8.44     0  01:17        1.95
  YS02001774           JUNCTION     0.67     2.05     8.47     0  01:17        2.05
  YS02001779           JUNCTION     0.49     1.68     8.37     0  01:17        1.68
  YS02001783           JUNCTION     0.50     1.28     7.42     0  01:15        1.21
  YS02001784           JUNCTION     0.48     1.16     7.23     0  01:15        1.13
  YS02001786           JUNCTION     0.39     0.91     6.94     0  01:15        0.86
  YS02001788           JUNCTION     0.29     0.62     6.59     0  01:30        0.62
  YS02001790           JUNCTION     0.33     0.72     6.36     0  01:28        0.71
  YS02001791           JUNCTION     0.20     0.43     5.90     0  01:48        0.43
  YS02001793           JUNCTION     0.11     0.25     5.09     0  01:32        0.25
  YS02001882           JUNCTION     0.62     1.68     8.39     0  01:15        1.62
  YS02001884           JUNCTION     0.71     1.76     8.38     0  01:15        1.72
  YS02001887           JUNCTION     0.79     1.82     8.36     0  01:32        1.82
  YS02001890           JUNCTION     0.81     1.81     8.32     0  01:15        1.81
  YS02001895           JUNCTION     0.59     1.58     8.32     0  01:32        1.55
  YS02001898           JUNCTION     0.60     1.58     8.32     0  01:32        1.56
  YS02001901           JUNCTION     0.71     1.85     8.46     0  01:32        1.85
  YS02001904           JUNCTION     0.69     1.66     8.29     0  01:32        1.66
  YS02001907           JUNCTION     1.00     1.96     8.25     0  01:15        1.96
  YS02001910           JUNCTION     0.81     1.96     8.46     0  01:16        1.81
  YS02001915           JUNCTION     0.63     1.90     8.62     0  01:16        1.66
  YS02001918           JUNCTION     0.43     1.81     8.88     0  01:16        1.37
  YS02001920           JUNCTION     0.50     2.07     9.08     0  01:16        1.46
  YS02001923           JUNCTION     0.34     1.97     9.23     0  01:16        1.24
  YS02001926           JUNCTION     0.31     1.90     9.35     0  01:16        1.06
  YS02001929           JUNCTION     0.20     1.78     9.47     0  01:16        0.82
  YS02006553           JUNCTION     1.00     1.98     8.26     0  01:15        1.96
  YS02006556           JUNCTION     0.96     1.96     8.27     0  01:15        1.92
  YS02006558           JUNCTION     1.00     2.01     8.28     0  01:32        2.01
  YS02006561           JUNCTION     0.32     0.97     7.63     0  01:15        0.87
  YS02163301           JUNCTION     0.91     1.99     8.50     0  02:36        1.99
  YS02163601           JUNCTION     0.97     2.08     8.48     0  02:32        2.08
  YS02164001           JUNCTION     0.88     2.04     8.50     0  02:32        2.04
  YSB1154              JUNCTION     0.81     1.97    11.03     0  01:11        1.91
  YSB1171              JUNCTION     0.95     1.95    10.85     0  01:11        1.95
  YSB1174              JUNCTION     0.76     1.90    11.01     0  01:32        1.90
  YSB6556              JUNCTION     0.71     1.80    10.97     0  01:11        1.76
  CC-1                 OUTFALL      0.00     0.00     0.00     0  00:00        0.00
  CC-2                 OUTFALL      0.00     0.00     0.00     0  00:00        0.00
  JK-1                 OUTFALL      0.00     0.00     0.00     0  00:00        0.00
  JK-2                 OUTFALL      0.00     0.00     0.00     0  00:00        0.00
  WSC                  OUTFALL      0.35     0.51     1.18     0  01:22        0.51
  CC-storage           STORAGE      0.74     1.79     7.29     0  03:02        1.79
  JK-storage           STORAGE      0.05     2.99     3.79     0  00:00        0.68
  XR-storage           STORAGE      7.77     9.26     7.26     0  08:00        9.26
  
  
  *******************
  Node Inflow Summary
  *******************
  
  -------------------------------------------------------------------------------------------------
                                  Maximum  Maximum                  Lateral       Total        Flow
                                  Lateral    Total  Time of Max      Inflow      Inflow     Balance
                                   Inflow   Inflow   Occurrence      Volume      Volume       Error
  Node                 Type           LPS      LPS  days hr:min    10^6 ltr    10^6 ltr     Percent
  -------------------------------------------------------------------------------------------------
  HS02004478           JUNCTION      0.00  2300.56     0  01:11           0        15.8      -0.010
  HS02004479           JUNCTION      0.00   393.83     0  01:17           0        2.01       0.040
  HS02004480           JUNCTION      0.00  2115.26     0  01:12           0        13.3       0.012
  HS02004770           JUNCTION    872.56   872.56     0  01:27        4.69        5.02       0.057
  HS02004777           JUNCTION      0.03   747.79     0  01:11    0.000864        3.61       0.149
  HS02004785           JUNCTION      0.15   746.44     0  01:10     0.00432        3.61       0.015
  HS02004788           JUNCTION    324.07   954.73     0  01:11        1.76        5.37       0.002
  HS02004792           JUNCTION   1080.44  1767.99     0  01:28        6.12        11.5       0.002
  HS02004799           JUNCTION    197.21  1770.91     0  01:11       0.986        11.3       0.051
  HS02004802           JUNCTION      0.00   579.54     0  01:27           0         2.6       0.134
  HS02004807           JUNCTION    241.90   578.75     0  01:27        1.21        2.65       0.176
  HS02004817           JUNCTION      0.60   470.51     0  01:12      0.0173         1.5       1.133
  HS02004824           JUNCTION    384.97   665.59     0  01:12        2.15        2.54       0.024
  HS02004830           JUNCTION      0.15   667.07     0  01:11     0.00432        1.44       0.089
  HS02004837           JUNCTION    234.16   898.81     0  01:12        1.33        2.56       0.038
  HS02004842           JUNCTION      0.00   824.05     0  01:12           0        2.35       0.572
  HS02004848           JUNCTION    348.42  1019.35     0  01:12        2.17         4.4      -0.002
  HS02004852           JUNCTION      0.00   988.96     0  01:13           0         4.3       0.001
  HS02004856           JUNCTION     99.74  1047.09     0  01:14       0.498        4.79       0.027
  HS02004862           JUNCTION    153.05  1117.96     0  01:13       0.912         5.7       0.003
  HS02004870           JUNCTION    132.66  1231.71     0  01:14       0.662        6.36       0.001
  HS02004876           JUNCTION    136.08  1193.42     0  01:15       0.686        7.05       0.009
  HS02004881           JUNCTION     70.25  1259.79     0  01:15       0.349         7.4       0.006
  HS02004901           JUNCTION    202.67   468.31     0  01:26        1.04        2.05       0.086
  WS02001211           JUNCTION      7.35   376.94     0  01:18       0.212        5.45       0.608
  WS02001212           JUNCTION      0.00   500.01     0  01:15           0        5.43       0.272
  WS02001213           JUNCTION      0.00   463.26     0  01:15           0        5.42       0.337
  WS02003059           JUNCTION      0.00   527.74     0  01:14           0        5.43       0.591
  WS02003060           JUNCTION     16.53  1565.75     0  01:14       0.476        18.2       0.080
  WS02003066           JUNCTION      0.00  1255.58     0  01:18           0        12.3       0.013
  WS02003067           JUNCTION      0.00  1249.70     0  01:27           0        12.3       0.035
  WS02003069           JUNCTION      0.32  1493.67     0  01:22     0.00922        18.1       0.086
  WS02003072           JUNCTION      0.00  1484.29     0  01:22           0        18.1       0.116
  WS02003073           JUNCTION      1.82  1482.46     0  01:23      0.0524        18.1       0.118
  WS02004138           JUNCTION      0.00   380.00     0  00:00           0        5.25       0.053
  WS02004139           JUNCTION      0.32   322.80     0  01:17     0.00924        5.26       0.508
  WS02004401           JUNCTION      0.00  1275.82     0  01:14           0        12.4       0.083
  WS02004402           JUNCTION      0.00  1276.19     0  01:14           0        12.4       0.088
  WS02004403           JUNCTION      0.00  1276.75     0  01:14           0        12.4       0.082
  WS02004404           JUNCTION      0.16  1277.59     0  01:13     0.00467        12.4       0.074
  WS02004405           JUNCTION      0.04  1278.65     0  01:14      0.0011        12.4       0.105
  WS02004406           JUNCTION      0.00  1278.59     0  01:14           0        12.4       0.170
  WS02004407           JUNCTION      0.00  1279.01     0  01:14           0        12.3       0.011
  WS02004409           JUNCTION      0.00  1341.95     0  01:11           0        12.3       0.029
  WS02004410           JUNCTION      0.00  1386.83     0  01:12           0        12.3       0.037
  WS02004411           JUNCTION      0.00  1294.35     0  01:13           0        12.3       0.048
  WS02004412           JUNCTION      0.00  1249.71     0  01:27           0        12.3       0.064
  WS02004413           JUNCTION      0.00  1249.59     0  01:27           0        12.3       0.113
  WS02006109           JUNCTION      1.23  1277.86     0  01:11      0.0354        12.1       0.073
  WS02006110           JUNCTION      0.00  1276.05     0  01:11           0        11.6       0.066
  WS02006111           JUNCTION      0.00  1275.66     0  01:10           0        11.6       0.008
  WS02006112           JUNCTION    165.87  1338.29     0  01:11       0.854        12.4       0.166
  WS02006113           JUNCTION      0.00  1274.76     0  01:11           0        11.6       0.022
  WS02006115           JUNCTION      0.00  1318.97     0  01:11           0        12.4       0.061
  WS02006116           JUNCTION      0.00  1276.75     0  01:11           0        12.4      -0.012
  WS02006228           JUNCTION      0.00  1278.76     0  01:11           0          12       0.023
  WS02006229           JUNCTION      0.00  2222.53     0  01:27           0        18.1       0.038
  WS02006230           JUNCTION     10.28   985.79     0  01:27       0.296        8.55       0.115
  WS02006231           JUNCTION      0.00   663.50     0  01:09           0        5.43      -0.086
  WS02006232           JUNCTION      0.00   650.99     0  01:09           0        5.41       0.083
  WS02006234           JUNCTION      0.00   650.79     0  01:09           0        5.37      -0.020
  WS02006235           JUNCTION      0.00   700.01     0  01:10           0        5.05       0.057
  WS02006238           JUNCTION      0.00   703.33     0  01:10           0        4.96      -0.021
  WS02006239           JUNCTION      0.00   682.74     0  01:10           0         4.9      -0.051
  WS02006240           JUNCTION      0.00   885.78     0  01:10           0        4.86      -0.056
  WS02006242           JUNCTION      0.00   847.98     0  01:10           0        4.84      -0.050
  WS02006243           JUNCTION      0.00   778.51     0  01:10           0        3.96      -0.055
  WS02006245           JUNCTION      0.00   427.32     0  03:59           0        3.96       0.198
  WS02006247           JUNCTION      0.00   440.18     0  01:11           0        3.96       0.005
  WS02006248           JUNCTION      0.00   501.73     0  01:11           0        4.41       0.030
  WS02006249           JUNCTION      0.00  1331.30     0  01:14           0        11.3       0.042
  WS02006251           JUNCTION      0.08  1330.35     0  01:15     0.00222        11.3      -0.018
  WS02006252           JUNCTION      0.00   400.00     0  00:00           0        4.84      -0.001
  WS02006253           JUNCTION     17.00  1276.79     0  01:15      0.0842         7.5       0.005
  WS02006256           JUNCTION      0.00   300.00     0  00:00           0        1.13       7.126
  WS02006280           JUNCTION      0.00  2222.58     0  01:27           0        15.8      -0.016
  WS02006284           JUNCTION      0.10  2223.11     0  01:27     0.00275        15.8       0.004
  WS02006287           JUNCTION      0.00  2223.58     0  01:28           0        15.8       0.047
  WSF200               JUNCTION      0.00  1274.98     0  01:14           0        12.3       0.004
  YS02001580           JUNCTION      0.00   134.53     0  01:12           0     0.00455      -1.214
  YS02001583           JUNCTION      0.00   180.16     0  01:11           0      0.0156      -5.487
  YS02001586           JUNCTION    455.12   455.20     0  01:44        2.86        2.87       0.062
  YS02001590           JUNCTION      0.00   319.78     0  01:32           0        2.47      -0.031
  YS02001593           JUNCTION      0.00   319.39     0  01:32           0        2.47       0.012
  YS02001596           JUNCTION      0.00   318.07     0  01:32           0        2.47      -0.015
  YS02001600           JUNCTION      0.00   318.19     0  01:27           0        2.47       0.021
  YS02001601           JUNCTION    736.18  1054.27     0  01:27        3.85        6.32       0.012
  YS02001602           JUNCTION      0.00   589.26     0  01:11           0        3.44       0.016
  YS02001605           JUNCTION      0.00   589.23     0  01:11           0        3.05       0.028
  YS02001607           JUNCTION      0.00   589.10     0  01:11           0        3.05       0.057
  YS02001610           JUNCTION      0.00   576.47     0  01:11           0        3.05       0.093
  YS02001613           JUNCTION      0.00   556.35     0  01:12           0        2.03       0.097
  YS02001616           JUNCTION      0.00   523.54     0  01:12           0        2.03       0.024
  YS02001619           JUNCTION    776.30   936.82     0  01:12         4.6        6.63      -0.001
  YS02001622           JUNCTION      0.00   947.40     0  01:12           0        6.62      -0.007
  YS02001625           JUNCTION      0.00   954.12     0  01:12           0        6.62       0.179
  YS02001629           JUNCTION      0.00   956.58     0  01:12           0        5.66      -0.021
  YS02001633           JUNCTION    547.27  1340.72     0  01:15        2.83         8.5       0.040
  YS02001641           JUNCTION      0.00  1341.89     0  01:15           0        8.51       0.038
  YS02001644           JUNCTION    479.51  1740.48     0  01:15        2.46          11       0.029
  YS02001647           JUNCTION      0.00  1739.91     0  01:15           0        10.9      -0.006
  YS02001649           JUNCTION      0.00  2085.31     0  01:14           0        13.2       0.023
  YS02001652           JUNCTION      0.00   522.73     0  01:28           0        2.29       0.099
  YS02001655           JUNCTION      0.15   634.56     0  01:29     0.00443        2.28      -0.616
  YS02001658           JUNCTION      0.00   794.55     0  01:26           0        2.36      -0.288
  YS02001661           JUNCTION      0.00   488.65     0  02:48           0        2.36       0.107
  YS02001664           JUNCTION    440.86   440.86     0  01:27        2.27        2.27      -0.010
  YS02001745           JUNCTION    272.42   272.42     0  01:25        1.35        1.36       0.148
  YS02001748           JUNCTION      0.04   323.78     0  02:44      0.0013        1.36      -0.192
  YS02001751           JUNCTION      0.01   514.73     0  01:22    0.000317        1.36      -0.024
  YS02001754           JUNCTION      0.26   408.37     0  01:29     0.00749        1.36      -0.189
  YS02001757           JUNCTION      0.00  3135.03     0  01:26           0        19.3       0.019
  YS02001759           JUNCTION    377.00   960.80     0  01:17        1.88        4.74      -0.018
  YS02001762           JUNCTION      0.00   601.15     0  01:17           0        2.86       0.011
  YS02001765           JUNCTION      0.00   595.73     0  01:17           0        2.86       0.012
  YS02001767           JUNCTION      0.54   593.21     0  01:17      0.0154        2.86       0.004
  YS02001770           JUNCTION    564.61   601.62     0  01:17        2.84         2.9      -0.018
  YS02001774           JUNCTION      0.00   147.47     0  01:13           0      0.0912       1.656
  YS02001779           JUNCTION      0.01   146.57     0  01:16    0.000144      0.0325      -0.854
  YS02001783           JUNCTION      0.00  1148.54     0  01:23           0         7.9       0.004
  YS02001784           JUNCTION      1.06  1149.91     0  01:23      0.0305        7.93       0.007
  YS02001786           JUNCTION      0.06  1149.59     0  01:23     0.00162        7.93       0.009
  YS02001788           JUNCTION      0.07  1150.01     0  01:27     0.00204        7.93       0.003
  YS02001790           JUNCTION      0.15  1166.56     0  01:30     0.00446        7.94      -0.006
  YS02001791           JUNCTION      0.00  1277.13     0  01:29           0        7.94      -0.004
  YS02001793           JUNCTION      0.00  1234.74     0  01:20           0        7.94      -0.038
  YS02001882           JUNCTION      0.00    84.71     0  01:13           0      0.0137       5.187
  YS02001884           JUNCTION      0.00   146.03     0  01:10           0      0.0496       5.569
  YS02001887           JUNCTION    389.73   390.43     0  01:24        1.94        1.98       0.217
  YS02001890           JUNCTION      0.00   391.78     0  01:14           0        1.94       0.271
  YS02001895           JUNCTION      0.00   395.92     0  01:14           0        1.93       0.156
  YS02001898           JUNCTION      0.00   405.43     0  01:14           0        1.93      -0.033
  YS02001901           JUNCTION      0.00   423.77     0  01:14           0        1.94       0.181
  YS02001904           JUNCTION      0.00   425.73     0  01:14           0        1.95       0.146
  YS02001907           JUNCTION      0.00  1274.59     0  01:17           0        6.17       0.293
  YS02001910           JUNCTION      0.00   894.52     0  01:17           0        4.22       0.172
  YS02001915           JUNCTION    526.93   894.14     0  01:17        2.71        4.25       0.035
  YS02001918           JUNCTION      0.00   435.60     0  01:17           0        1.57       0.021
  YS02001920           JUNCTION      2.87   435.17     0  01:17      0.0827        1.55       0.062
  YS02001923           JUNCTION      0.04   376.26     0  01:16     0.00109        1.45      -0.024
  YS02001926           JUNCTION      0.05   505.40     0  01:15      0.0015        1.44      -0.027
  YS02001929           JUNCTION    268.16   268.16     0  01:28        1.43        1.43      -0.020
  YS02006553           JUNCTION      0.00   781.04     0  02:19           0        5.13       0.235
  YS02006556           JUNCTION      0.00   781.08     0  02:19           0        5.15       0.160
  YS02006558           JUNCTION    565.44  1149.44     0  01:23        2.85        7.96       0.042
  YS02006561           JUNCTION      0.00  1149.28     0  01:27           0         7.9       0.001
  YS02163301           JUNCTION      0.00   908.75     0  01:14           0        5.68       0.031
  YS02163601           JUNCTION      0.11  1341.61     0  01:15     0.00317        8.49       0.060
  YS02164001           JUNCTION      0.00  1341.57     0  01:15           0        8.49       0.034
  YSB1154              JUNCTION    233.50   233.50     0  01:26        1.18        1.18       0.119
  YSB1171              JUNCTION      0.00   415.78     0  01:25           0        2.09       0.311
  YSB1174              JUNCTION    182.10   182.10     0  01:25         0.9       0.901       0.136
  YSB6556              JUNCTION      0.00   233.69     0  01:25           0        1.18       0.111
  CC-1                 OUTFALL       0.00   683.00     0  00:00           0        8.25       0.000
  CC-2                 OUTFALL       0.00   683.00     0  00:00           0        8.25       0.000
  JK-1                 OUTFALL       0.00  1000.00     0  00:00           0        3.72       0.000
  JK-2                 OUTFALL       0.00  1000.00     0  00:00           0        3.72       0.000
  WSC                  OUTFALL       0.00  1481.40     0  01:22           0        18.1       0.000
  CC-storage           STORAGE       0.00  3136.95     0  01:26           0        21.6      -0.246
  JK-storage           STORAGE       0.00  1326.15     0  01:20           0        8.09      -5.512
  XR-storage           STORAGE     200.00   200.00     0  00:00        5.76        6.36       0.001
  
  
  **********************
  Node Surcharge Summary
  **********************
  
  Surcharging occurs when water rises above the top of the highest conduit.
  ---------------------------------------------------------------------
                                               Max. Height   Min. Depth
                                   Hours       Above Crown    Below Rim
  Node                 Type      Surcharged         Meters       Meters
  ---------------------------------------------------------------------
  HS02004478           JUNCTION        1.81          0.624        0.316
  HS02004479           JUNCTION        1.90          0.925        0.125
  HS02004480           JUNCTION        1.92          0.970        0.130
  HS02004770           JUNCTION        1.87          0.720        0.000
  HS02004777           JUNCTION        1.87          0.780        0.000
  HS02004785           JUNCTION        1.83          0.790        0.000
  HS02004788           JUNCTION        1.82          0.720        0.000
  HS02004792           JUNCTION        1.90          0.900        0.000
  HS02004799           JUNCTION        1.96          1.060        0.000
  HS02004802           JUNCTION        1.92          1.035        0.175
  HS02004807           JUNCTION        1.90          1.220        0.000
  HS02004817           JUNCTION        2.11          1.740        0.000
  HS02004824           JUNCTION        1.82          1.310        0.000
  HS02004830           JUNCTION        1.79          1.330        0.000
  HS02004837           JUNCTION        1.39          1.340        0.000
  HS02004842           JUNCTION        1.85          1.520        0.000
  HS02004848           JUNCTION        1.28          1.370        0.000
  HS02004852           JUNCTION        1.49          1.401        0.019
  HS02004856           JUNCTION        1.38          1.300        0.000
  HS02004862           JUNCTION        1.76          1.300        0.000
  HS02004870           JUNCTION        1.79          1.400        0.000
  HS02004876           JUNCTION        1.84          1.560        0.000
  HS02004881           JUNCTION        1.82          1.215        0.235
  HS02004901           JUNCTION        1.87          0.720        0.000
  WS02004401           JUNCTION        2.29          1.660        0.000
  WS02004402           JUNCTION        2.32          1.740        0.000
  WS02004403           JUNCTION        2.33          2.030        0.000
  WS02004404           JUNCTION        2.49          2.175        0.605
  WS02004405           JUNCTION        2.46          2.180        0.620
  WS02004406           JUNCTION        2.42          1.455        0.995
  WS02004409           JUNCTION        1.96          0.669        1.691
  WS02004410           JUNCTION        1.94          0.784        1.756
  WS02004411           JUNCTION        1.93          0.819        1.711
  WS02004412           JUNCTION        1.90          0.501        1.809
  WS02004413           JUNCTION        2.07          1.701        0.499
  WS02006109           JUNCTION        3.19          1.820        0.000
  WS02006110           JUNCTION        2.80          1.721        0.129
  WS02006111           JUNCTION        2.03          1.319        0.551
  WS02006112           JUNCTION        3.01          1.680        0.000
  WS02006113           JUNCTION        2.06          1.426        0.504
  WS02006115           JUNCTION        2.20          2.017        0.233
  WS02006116           JUNCTION        2.21          1.833        0.457
  WS02006228           JUNCTION        3.17          2.200        0.000
  WS02006229           JUNCTION        1.97          1.068        0.002
  WS02006230           JUNCTION        2.55          1.570        0.000
  WS02006231           JUNCTION        2.81          1.530        0.000
  WS02006232           JUNCTION        3.25          1.480        0.000
  WS02006234           JUNCTION        3.04          1.240        0.000
  WS02006235           JUNCTION        3.13          1.290        0.000
  WS02006238           JUNCTION        3.18          1.430        0.000
  WS02006239           JUNCTION        3.13          1.290        0.000
  WS02006240           JUNCTION        3.13          1.390        0.000
  WS02006242           JUNCTION        3.25          0.820        0.000
  WS02006243           JUNCTION        3.15          0.770        0.000
  WS02006245           JUNCTION        3.14          0.850        0.000
  WS02006247           JUNCTION        3.17          0.760        0.000
  WS02006248           JUNCTION        3.12          0.380        0.000
  WS02006249           JUNCTION        3.15          0.390        0.000
  WS02006251           JUNCTION        2.97          1.152        0.028
  WS02006252           JUNCTION        3.36          1.100        0.000
  WS02006253           JUNCTION        3.00          2.207        0.273
  WS02006256           JUNCTION        6.61          2.050        0.000
  WS02006280           JUNCTION        1.94          0.727        0.053
  WS02006284           JUNCTION        1.90          0.646        0.154
  WS02006287           JUNCTION        1.86          0.736        0.154
  YS02001580           JUNCTION        1.83          0.450        0.000
  YS02001583           JUNCTION        1.83          0.500        0.000
  YS02001586           JUNCTION        1.93          0.510        0.000
  YS02001590           JUNCTION        1.98          0.750        0.000
  YS02001593           JUNCTION        1.98          0.840        0.000
  YS02001596           JUNCTION        2.04          1.070        0.000
  YS02001600           JUNCTION        2.10          1.190        0.000
  YS02001601           JUNCTION        2.28          1.440        0.000
  YS02001602           JUNCTION        2.22          1.270        0.000
  YS02001605           JUNCTION        2.20          1.180        0.000
  YS02001607           JUNCTION        1.95          0.680        0.000
  YS02001610           JUNCTION        1.96          0.680        0.000
  YS02001613           JUNCTION        1.95          0.700        0.000
  YS02001616           JUNCTION        1.92          0.610        0.000
  YS02001619           JUNCTION        1.91          0.610        0.000
  YS02001622           JUNCTION        1.91          0.620        0.000
  YS02001625           JUNCTION        2.03          0.780        0.000
  YS02001629           JUNCTION        1.88          0.470        0.000
  YS02001633           JUNCTION        2.05          1.060        0.000
  YS02001641           JUNCTION        2.03          1.013        0.087
  YS02001644           JUNCTION        2.02          0.920        0.000
  YS02001647           JUNCTION        1.85          0.831        0.069
  YS02001649           JUNCTION        1.96          1.016        0.034
  YS02001652           JUNCTION        1.81          1.130        0.000
  YS02001655           JUNCTION        0.65          1.200        0.000
  YS02001658           JUNCTION        0.02          1.300        0.000
  YS02001751           JUNCTION        0.02          0.329        0.871
  YS02001754           JUNCTION        1.21          0.467        0.683
  YS02001757           JUNCTION        2.01          0.832        0.378
  YS02001759           JUNCTION        1.94          0.766        0.444
  YS02001762           JUNCTION        1.91          0.713        0.437
  YS02001765           JUNCTION        1.87          0.687        0.413
  YS02001767           JUNCTION        1.85          0.701        0.329
  YS02001770           JUNCTION        1.83          0.920        0.000
  YS02001774           JUNCTION        1.90          1.050        0.000
  YS02001779           JUNCTION        1.35          0.680        0.000
  YS02001783           JUNCTION        1.80          0.484        1.116
  YS02001784           JUNCTION        1.57          0.365        1.125
  YS02001786           JUNCTION        1.14          0.110        1.320
  YS02001882           JUNCTION        1.29          0.675        0.155
  YS02001884           JUNCTION        1.35          0.702        0.168
  YS02001887           JUNCTION        1.78          0.769        0.181
  YS02001890           JUNCTION        1.80          0.760        0.000
  YS02001895           JUNCTION        1.26          0.578        0.172
  YS02001898           JUNCTION        1.24          0.554        0.186
  YS02001901           JUNCTION        1.53          0.849        0.021
  YS02001904           JUNCTION        1.42          0.661        0.189
  YS02001907           JUNCTION        1.94          0.950        0.000
  YS02001910           JUNCTION        1.83          0.955        0.145
  YS02001915           JUNCTION        1.30          0.901        0.099
  YS02001918           JUNCTION        1.11          0.810        0.000
  YS02001920           JUNCTION        1.14          1.067        0.073
  YS02001923           JUNCTION        0.01          0.762        0.058
  YS02001926           JUNCTION        0.01          0.900        0.000
  YS02001929           JUNCTION        0.01          0.780        0.000
  YS02006553           JUNCTION        1.95          0.980        0.210
  YS02006556           JUNCTION        1.89          0.921        0.429
  YS02006558           JUNCTION        1.88          0.908        0.492
  YS02006561           JUNCTION        1.07          0.175        0.975
  YS02163301           JUNCTION        2.04          0.987        0.043
  YS02163601           JUNCTION        2.08          1.080        0.000
  YS02164001           JUNCTION        2.03          1.044        0.056
  YSB1154              JUNCTION        2.00          1.269        0.131
  YSB1171              JUNCTION        2.00          1.100        0.000
  YSB1174              JUNCTION        1.98          1.198        0.052
  YSB6556              JUNCTION        1.95          1.100        0.000
  
  
  *********************
  Node Flooding Summary
  *********************
  
  Flooding refers to all water that overflows a node, whether it ponds or not.
  --------------------------------------------------------------------------
                                                             Total   Maximum
                                 Maximum   Time of Max       Flood    Ponded
                        Hours       Rate    Occurrence      Volume     Depth
  Node                 Flooded       LPS   days hr:min    10^6 ltr    Meters
  --------------------------------------------------------------------------
  HS02004770              0.95    243.77      0  01:27       0.401     0.000
  HS02004777              0.01     41.78      0  01:11       0.000     0.000
  HS02004785              0.01     57.23      0  01:11       0.000     0.000
  HS02004788              0.01    181.84      0  01:11       0.001     0.000
  HS02004792              1.07    596.21      0  01:27       1.211     0.000
  HS02004799              0.01     46.28      0  01:11       0.000     0.000
  HS02004807              0.01     18.36      0  01:14       0.000     0.000
  HS02004817              0.01      9.28      0  01:14       0.000     0.000
  HS02004824              0.01     19.18      0  01:14       0.000     0.000
  HS02004830              0.01     24.34      0  01:14       0.000     0.000
  HS02004837              0.01     98.79      0  01:14       0.000     0.000
  HS02004842              0.01    153.04      0  01:14       0.001     0.000
  HS02004848              0.01    306.01      0  01:14       0.001     0.000
  HS02004856              0.01    296.75      0  01:14       0.000     0.000
  HS02004862              0.01    247.71      0  01:14       0.000     0.000
  HS02004870              0.01    288.79      0  01:14       0.000     0.000
  HS02004876              0.01    132.06      0  01:14       0.000     0.000
  HS02004901              1.27    468.31      0  01:26       1.719     0.000
  WS02004401              0.01     52.54      0  01:11       0.000     0.000
  WS02004402              0.01    111.87      0  01:11       0.001     0.000
  WS02004403              0.01    262.13      0  01:11       0.000     0.000
  WS02006109              1.19    165.51      0  01:27       0.461     0.000
  WS02006112              0.01    128.98      0  01:11       0.001     0.000
  WS02006228              0.01      9.01      0  01:11       0.000     0.000
  WS02006230              1.91    532.49      0  01:27       2.869     0.000
  WS02006231              0.01    158.66      0  01:09       0.000     0.000
  WS02006232              0.67    190.63      0  01:09       0.001     0.000
  WS02006234              1.94     90.77      0  02:03       0.417     0.000
  WS02006235              0.01     84.34      0  01:10       0.001     0.000
  WS02006238              0.01      3.61      0  01:32       0.000     0.000
  WS02006239              0.01    311.04      0  01:10       0.001     0.000
  WS02006240              0.01    753.89      0  01:10       0.002     0.000
  WS02006242              1.98    807.15      0  01:10       0.880     0.000
  WS02006243              0.01    740.68      0  01:10       0.006     0.000
  WS02006245              0.01    296.81      0  01:11       0.001     0.000
  WS02006247              0.01    346.19      0  01:11       0.001     0.000
  WS02006248              2.09    481.27      0  01:11       2.426     0.000
  WS02006249              2.72   1262.02      0  01:27       8.872     0.000
  WS02006252              1.78    346.47      0  01:15       0.999     0.000
  WS02006256              1.06    298.31      0  02:48       0.915     0.000
  YS02001580              0.01    102.35      0  01:12       0.000     0.000
  YS02001583              0.01     71.34      0  01:12       0.000     0.000
  YS02001586              1.32    137.66      0  01:44       0.393     0.000
  YS02001590              0.01      7.11      0  01:12       0.000     0.000
  YS02001593              0.01     37.72      0  01:10       0.000     0.000
  YS02001596              0.01      6.96      0  01:10       0.000     0.000
  YS02001600              0.01      1.81      0  01:12       0.000     0.000
  YS02001601              1.88    656.36      0  01:27       2.873     0.000
  YS02001602              1.82     62.02      0  02:03       0.395     0.000
  YS02001605              0.01      7.20      0  01:12       0.000     0.000
  YS02001607              0.01      0.28      0  02:51       0.000     0.000
  YS02001610              1.77    293.12      0  01:32       1.022     0.000
  YS02001613              0.01      0.45      0  01:27       0.000     0.000
  YS02001616              0.01     19.01      0  01:12       0.000     0.000
  YS02001619              0.01     72.66      0  01:12       0.000     0.000
  YS02001622              0.01    172.50      0  01:12       0.000     0.000
  YS02001625              1.76    445.84      0  01:26       0.949     0.000
  YS02001629              0.05    303.48      0  01:12       0.003     0.000
  YS02001633              0.01      2.16      0  02:36       0.000     0.000
  YS02001644              0.01     14.32      0  02:47       0.000     0.000
  YS02001652              0.01     61.20      0  02:48       0.000     0.000
  YS02001655              0.01    239.34      0  02:48       0.001     0.000
  YS02001658              0.01    269.98      0  02:55       0.000     0.000
  YS02001770              0.01     16.34      0  01:17       0.000     0.000
  YS02001774              0.01     24.09      0  01:17       0.000     0.000
  YS02001779              0.01     47.52      0  01:17       0.000     0.000
  YS02001890              0.01     27.24      0  01:32       0.000     0.000
  YS02001907              1.03    654.28      0  01:17       1.040     0.000
  YS02001918              0.01     44.77      0  01:16       0.000     0.000
  YS02001926              0.01    245.41      0  01:16       0.000     0.000
  YS02001929              0.01     50.04      0  01:16       0.000     0.000
  YS02163601              0.01      9.36      0  02:32       0.000     0.000
  YSB1171                 0.35    140.34      0  01:27       0.083     0.000
  YSB6556                 0.01     15.30      0  01:11       0.000     0.000
  
  
  **********************
  Storage Volume Summary
  **********************
  
  --------------------------------------------------------------------------------------------------
                         Average     Avg  Evap Exfil       Maximum     Max    Time of Max    Maximum
                          Volume    Pcnt  Pcnt  Pcnt        Volume    Pcnt     Occurrence    Outflow
  Storage Unit           1000 m3    Full  Loss  Loss       1000 m3    Full    days hr:min        LPS
  --------------------------------------------------------------------------------------------------
  CC-storage               2.061      32     0     0         4.995      78       0  03:02    1783.53
  JK-storage               0.003       1     0     0         0.150      52       0  00:00    2300.00
  XR-storage               0.932      65     0     0         1.111      77       0  08:00     380.00
  
  
  ***********************
  Outfall Loading Summary
  ***********************
  
  -----------------------------------------------------------
                         Flow       Avg       Max       Total
                         Freq      Flow      Flow      Volume
  Outfall Node           Pcnt       LPS       LPS    10^6 ltr
  -----------------------------------------------------------
  CC-1                  64.89    683.00    683.00       8.253
  CC-2                  64.89    683.00    683.00       8.253
  JK-1                  21.70    996.53   1000.00       3.719
  JK-2                  21.70    996.53   1000.00       3.719
  WSC                   99.96    851.31   1481.40      18.113
  -----------------------------------------------------------
  System                54.63   4210.38   1481.40      42.056
  
  
  ********************
  Link Flow Summary
  ********************
  
  -----------------------------------------------------------------------------
                                 Maximum  Time of Max   Maximum    Max/    Max/
                                  |Flow|   Occurrence   |Veloc|    Full    Full
  Link                 Type          LPS  days hr:min     m/sec    Flow   Depth
  -----------------------------------------------------------------------------
  1                    CONDUIT   1481.40     0  01:22      3.68    0.52    0.51
  HS02004478WS02006287 CONDUIT   2223.58     0  01:28      2.92    0.62    1.00
  HS02004479HS02004480 CONDUIT    394.64     0  01:17      0.65    0.38    1.00
  HS02004480HS02004478 CONDUIT   2115.95     0  01:12      3.02    8.91    1.00
  HS02004770HS02004777 CONDUIT    747.76     0  01:11      1.07    1.37    1.00
  HS02004777HS02004785 CONDUIT    746.29     0  01:10      1.16    0.92    1.00
  HS02004785HS02004788 CONDUIT    737.91     0  01:11      1.39    5.56    1.00
  HS02004788HS02004792 CONDUIT    897.88     0  01:11      1.48    0.59    1.00
  HS02004792HS02004799 CONDUIT   1614.33     0  01:11      2.31    0.99    1.00
  HS02004799HS02004480 CONDUIT   1767.16     0  01:11      2.52    2.23    1.00
  HS02004802HS02004478 CONDUIT    580.02     0  01:27      0.83    0.51    1.00
  HS02004807HS02004802 CONDUIT    579.54     0  01:27      0.83    1.11    1.00
  HS02004817HS02004807 CONDUIT    469.91     0  01:12      0.67    0.28    1.00
  HS02004817HS02004824 CONDUIT    469.76     0  01:12      0.67    0.21    1.00
  HS02004824HS02004830 CONDUIT    666.92     0  01:11      1.03    0.87    1.00
  HS02004830HS02004837 CONDUIT    710.00     0  01:12      1.15    0.71    1.00
  HS02004837HS02004842 CONDUIT    824.05     0  01:12      1.18    0.49    1.00
  HS02004842HS02004848 CONDUIT    822.88     0  01:12      1.32    0.48    1.00
  HS02004848HS02004852 CONDUIT    988.96     0  01:13      1.64    1.11    1.00
  HS02004852HS02004856 CONDUIT    957.47     0  01:14      1.48    1.10    1.00
  HS02004856HS02004862 CONDUIT   1013.44     0  01:13      1.69    1.01    1.00
  HS02004862HS02004870 CONDUIT   1112.53     0  01:14      1.85    1.20    1.00
  HS02004870HS02004876 CONDUIT   1076.45     0  01:15      1.54    0.71    1.00
  HS02004876HS02004881 CONDUIT   1193.81     0  01:15      2.13   12.70    1.00
  HS02004881HS02006253 CONDUIT   1260.15     0  01:15      2.93    0.25    1.00
  HS02004901HS02004770 CONDUIT    265.79     0  01:59      0.38    1.00    1.00
  WS02001211WS02001212 CONDUIT    314.28     0  01:20      0.54    0.24    0.72
  WS02001212WS02001213 CONDUIT    345.70     0  01:20      1.04    0.53    0.61
  WS02001213WS02003059 CONDUIT    312.95     0  01:15      0.47    0.52    0.91
  WS02003059WS02003060 CONDUIT    431.79     0  01:14      0.77    0.28    0.82
  WS02003060WS02003069 CONDUIT   1493.35     0  01:22      2.32    0.58    0.60
  WS02003066WSF200     CONDUIT   1274.98     0  01:14      3.73    0.22    0.40
  WS02003067WS02003066 CONDUIT   1255.58     0  01:18      2.00    0.40    0.57
  WS02003069WS02003072 CONDUIT   1484.29     0  01:22      1.89    0.71    0.66
  WS02003072WS02003073 CONDUIT   1480.64     0  01:23      2.04    3.20    0.61
  WS02004138WS02004139 CONDUIT    190.00     0  00:32      2.16    0.04    0.43
  WS02004139WS02001211 CONDUIT    369.60     0  01:18      0.54    0.47    0.62
  WS02004401WS02004402 CONDUIT   1276.19     0  01:14      1.62    1.53    1.00
  WS02004402WS02004403 CONDUIT   1276.75     0  01:14      1.63    1.83    1.00
  WS02004403WS02004404 CONDUIT   1277.43     0  01:13      1.63    0.92    1.00
  WS02004404WS02004405 CONDUIT   1278.61     0  01:14      1.63   12.53    1.00
  WS02004405WS02004406 CONDUIT   1278.59     0  01:14      1.63    2.52    1.00
  WS02004406WS02004407 CONDUIT   1279.01     0  01:14      2.14    0.57    0.92
  WS02004407WS02004409 CONDUIT   1341.95     0  01:11      2.58    0.48    0.92
  WS02004409WS02004410 CONDUIT   1386.83     0  01:12      1.94    1.79    1.00
  WS02004410WS02004411 CONDUIT   1294.35     0  01:13      1.90    1.77    1.00
  WS02004411WS02004412 CONDUIT   1249.71     0  01:27      1.75    1.78    1.00
  WS02004412WS02004413 CONDUIT   1249.59     0  01:27      1.70    0.84    1.00
  WS02004413WS02003067 CONDUIT   1249.70     0  01:27      1.95    0.54    0.76
  WS02006109WS02006110 CONDUIT   1276.05     0  01:11      2.54    2.45    1.00
  WS02006110WS02006113 CONDUIT   1274.76     0  01:11      2.54    1.16    1.00
  WS02006111WS02006112 CONDUIT   1216.61     0  01:11      2.42    0.58    1.00
  WS02006112WS02006115 CONDUIT   1318.97     0  01:11      1.68    0.78    1.00
  WS02006113WS02006111 CONDUIT   1275.66     0  01:10      2.81    1.53    1.00
  WS02006115WS02006116 CONDUIT   1276.75     0  01:11      1.63    1.64    1.00
  WS02006116WS02004401 CONDUIT   1275.82     0  01:14      1.62    1.76    1.00
  WS02006228WS02006109 CONDUIT   1276.63     0  01:11      2.54    5.58    1.00
  WS02006229WS02006228 CONDUIT   1278.76     0  01:11      2.54    4.24    1.00
  WS02006230WS02006229 CONDUIT    975.51     0  01:27      2.53   21.71    1.00
  WS02006231WS02006230 CONDUIT    663.50     0  01:09      1.73   10.06    1.00
  WS02006232WS02006231 CONDUIT    650.99     0  01:09      1.69    1.36    1.00
  WS02006234WS02006232 CONDUIT    650.79     0  01:09      1.97    1.32    1.00
  WS02006235WS02006234 CONDUIT    683.34     0  01:09      1.83    7.21    1.00
  WS02006238WS02006235 CONDUIT    703.33     0  01:10      2.05    1.57    1.00
  WS02006239WS02006238 CONDUIT    647.88     0  01:10      2.09    2.07    1.00
  WS02006240WS02006239 CONDUIT    668.62     0  01:10      1.87    2.10    1.00
  WS02006242WS02006240 CONDUIT    537.31     0  01:10      1.40    2.13    1.00
  WS02006243WS02006242 CONDUIT    475.45     0  01:10      1.32    1.02    1.00
  WS02006245WS02006243 CONDUIT    426.57     0  03:59      1.38    1.26    1.00
  WS02006247WS02006245 CONDUIT    427.32     0  03:59      1.37    3.39    1.00
  WS02006248WS02006247 CONDUIT    440.18     0  01:11      1.41    0.96    1.00
  WS02006249WS02006248 CONDUIT    471.01     0  01:11      1.38    2.58    1.00
  WS02006251WS02006249 CONDUIT   1331.30     0  01:14      3.46    3.84    1.00
  WS02006252WS02006251 CONDUIT    411.81     0  01:11      4.83    1.51    1.00
  WS02006253WS02006251 CONDUIT   1276.52     0  01:15      3.32    3.83    1.00
  WS02006256WS02006235 CONDUIT    288.93     0  00:00      4.23    3.06    1.00
  WS02006280WS02006229 CONDUIT   2222.53     0  01:27      5.30    0.47    1.00
  WS02006284WS02006280 CONDUIT   2222.58     0  01:27      3.32    0.93    1.00
  WS02006287WS02006284 CONDUIT   2223.01     0  01:27      3.09    1.03    1.00
  WSF200WS02003060     CONDUIT   1449.02     0  01:14      3.21    0.32    0.50
  YS02001580YS02001583 CONDUIT    134.53     0  01:12      0.73    0.52    1.00
  YS02001583YS02001586 CONDUIT    155.27     0  01:11      0.73    0.23    1.00
  YS02001586YS02001590 CONDUIT    319.78     0  01:32      1.30    0.56    1.00
  YS02001590YS02001593 CONDUIT    319.39     0  01:32      1.13    2.00    1.00
  YS02001593YS02001596 CONDUIT    318.07     0  01:32      1.71    0.50    1.00
  YS02001596YS02001600 CONDUIT    318.19     0  01:27      1.26    0.62    1.00
  YS02001600YS02001601 CONDUIT    318.34     0  01:32      1.13    0.55    1.00
  YS02001601YS02001602 CONDUIT    589.26     0  01:11      2.08    2.13    1.00
  YS02001602YS02001605 CONDUIT    589.23     0  01:11      2.08   12.47    1.00
  YS02001605YS02001607 CONDUIT    589.10     0  01:11      2.08    3.23    1.00
  YS02001607YS02001610 CONDUIT    576.47     0  01:11      0.84    0.55    1.00
  YS02001610YS02001613 CONDUIT    556.35     0  01:12      0.78    0.64    1.00
  YS02001613YS02001616 CONDUIT    523.54     0  01:12      0.83    0.45    1.00
  YS02001616YS02001619 CONDUIT    503.12     0  01:12      0.88    0.87    1.00
  YS02001619YS02001622 CONDUIT    947.40     0  01:12      1.82    1.40    1.00
  YS02001622YS02001625 CONDUIT    954.12     0  01:12      1.21    0.51    1.00
  YS02001625YS02001629 CONDUIT    956.58     0  01:12      1.22    0.45    1.00
  YS02001629YS02163301 CONDUIT    908.75     0  01:14      1.16    1.12    1.00
  YS02001633YS02163601 CONDUIT   1341.50     0  01:15      1.71    1.41    1.00
  YS02001641YS02001644 CONDUIT   1342.61     0  01:15      1.71    4.34    1.00
  YS02001644YS02001647 CONDUIT   1739.91     0  01:15      2.25    1.02    1.00
  YS02001647YS02001649 CONDUIT   1775.31     0  01:15      2.33    0.94    1.00
  YS02001649YS02001757 CONDUIT   2035.50     0  01:14      2.62    1.24    1.00
  YS02001652YS02001649 CONDUIT    523.58     0  01:28      1.36    0.26    1.00
  YS02001655YS02001652 CONDUIT    522.73     0  01:28      1.85    0.25    1.00
  YS02001658YS02001655 CONDUIT    634.41     0  01:29      2.01    0.27    1.00
  YS02001661YS02001658 CONDUIT    794.55     0  01:26      2.26    0.31    0.67
  YS02001664YS02001661 CONDUIT    443.63     0  01:26      2.13    0.14    0.44
  YS02001745YS02001748 CONDUIT    323.73     0  02:44      2.11    0.12    0.54
  YS02001748YS02001751 CONDUIT    514.72     0  01:22      1.74    0.26    0.92
  YS02001751YS02001754 CONDUIT    408.11     0  01:29      1.70    0.20    1.00
  YS02001754YS02001757 CONDUIT    362.67     0  01:27      0.92    0.15    1.00
  YS02001757CaochengTiaoxuchi CONDUIT   3136.95     0  01:26      6.30    1.36    1.00
  YS02001759YS02001757 CONDUIT    964.41     0  01:17      1.24    0.69    1.00
  YS02001762YS02001759 CONDUIT    605.67     0  01:17      0.77    0.70    1.00
  YS02001765YS02001762 CONDUIT    601.15     0  01:17      0.82    0.56    1.00
  YS02001767YS02001765 CONDUIT    595.73     0  01:17      0.93    0.75    1.00
  YS02001770YS02001767 CONDUIT    592.68     0  01:17      0.95    2.35    1.00
  YS02001774YS02001770 CONDUIT    147.47     0  01:13      0.73    0.09    1.00
  YS02001779YS02001774 CONDUIT    146.56     0  01:16      0.22    0.07    1.00
  YS02001783YS02001784 CONDUIT   1148.85     0  01:23      2.29    1.58    1.00
  YS02001784YS02001785 CONDUIT   1149.54     0  01:23      2.29    2.68    1.00
  YS02001786YS02001788 CONDUIT   1149.94     0  01:27      2.46    2.22    0.89
  YS02001788YS02001790 CONDUIT   1166.40     0  01:30      2.72    0.86    0.83
  YS02001790YS02001791 CONDUIT   1277.13     0  01:29      3.42    1.39    0.70
  YS02001791YS02001793 CONDUIT   1234.74     0  01:20      6.44    0.53    0.43
  YS02001793JiankangQianchi CONDUIT   1326.15     0  01:20     24.65    0.11    0.50
  YS02001882YS02001884 CONDUIT     84.71     0  01:13      0.42    0.10    1.00
  YS02001884YS02001887 CONDUIT    146.03     0  01:10      0.37    0.19    1.00
  YS02001887YS02001890 CONDUIT    391.78     0  01:14      0.50    0.67    1.00
  YS02001890YS02001895 CONDUIT    395.92     0  01:14      0.50    0.18    1.00
  YS02001895YS02001898 CONDUIT    405.43     0  01:14      0.72    0.70    1.00
  YS02001898YS02001901 CONDUIT    423.77     0  01:14      0.60    0.27    1.00
  YS02001901YS02001904 CONDUIT    425.73     0  01:14      0.65    0.66    1.00
  YS02001904YS02001907 CONDUIT    427.91     0  01:14      0.54    0.15    1.00
  YS02001907YS02006553 CONDUIT    781.04     0  02:19      0.87    0.92    1.00
  YS02001910YS02001907 CONDUIT    894.68     0  01:17      1.14    0.50    1.00
  YS02001915YS02001910 CONDUIT    894.52     0  01:17      1.14    0.44    1.00
  YS02001918YS02001915 CONDUIT    435.94     0  01:17      0.56    0.24    1.00
  YS02001920YS02001918 CONDUIT    435.60     0  01:17      0.72    0.42    1.00
  YS02001923YS02001920 CONDUIT    432.30     0  01:17      0.83    0.19    1.00
  YS02001926YS02001923 CONDUIT    376.23     0  01:16      0.94    0.54    1.00
  YS02001929YS02001926 CONDUIT    372.20     0  01:16      1.07    0.18    1.00
  YS02006553YS02006556 CONDUIT    781.08     0  02:19      0.99    0.67    1.00
  YS02006556YS02006558 CONDUIT    781.22     0  02:19      0.99    0.62    1.00
  YS02006558YS02006561 CONDUIT   1149.28     0  01:27      4.06    2.54    1.00
  YS02006561YS02001783 CONDUIT   1148.54     0  01:23      2.28    0.59    1.00
  YS02163301YS02001633 CONDUIT    908.59     0  01:15      1.16    0.85    1.00
  YS02163601YS02164001 CONDUIT   1341.57     0  01:15      1.71    1.19    1.00
  YS02164001YS02001641 CONDUIT   1341.89     0  01:15      1.71    1.83    1.00
  YSB1154YSB6556       CONDUIT    233.69     0  01:25      0.61    0.42    1.00
  YSB1171HS02004479    CONDUIT    393.83     0  01:17      0.78    0.26    1.00
  YSB1174YSB1171       CONDUIT    182.30     0  01:25      0.47    0.28    1.00
  YSB6556YSB1171       CONDUIT    233.87     0  01:25      0.61    0.24    1.00
  CC-R1                PUMP       683.00     0  00:00              1.00
  CC-R2                PUMP       683.00     0  00:00              1.00
  CC-S1                PUMP       200.00     0  00:00              1.00
  CC-S2                PUMP       200.00     0  00:00              1.00
  JK-R1                PUMP      1000.00     0  00:00              1.00
  JK-R2                PUMP      1000.00     0  00:00              1.00
  JK-S                 PUMP       300.00     0  00:00              1.00
  XR-1                 PUMP        95.00     0  00:00              1.00
  XR-2                 PUMP        95.00     0  00:00              1.00
  XR-3                 PUMP        95.00     0  00:00              1.00
  XR-4                 PUMP        95.00     0  00:00              1.00
  
  
  ***************************
  Flow Classification Summary
  ***************************
  
  -------------------------------------------------------------------------------------
                      Adjusted    ---------- Fraction of Time in Flow Class ---------- 
                       /Actual         Up    Down  Sub   Sup   Up    Down  Norm  Inlet 
  Conduit               Length    Dry  Dry   Dry   Crit  Crit  Crit  Crit  Ltd   Ctrl  
  -------------------------------------------------------------------------------------
  1                       1.00   0.00  0.00  0.00  0.00  1.00  0.00  0.00  0.54  0.00
  HS02004478WS02006287    1.00   0.12  0.00  0.00  0.75  0.14  0.00  0.00  0.55  0.00
  HS02004479HS02004480    1.00   0.05  0.00  0.00  0.95  0.00  0.00  0.00  0.09  0.00
  HS02004480HS02004478    1.00   0.11  0.00  0.00  0.72  0.00  0.00  0.17  0.00  0.00
  HS02004770HS02004777    1.00   0.00  0.11  0.00  0.89  0.00  0.00  0.00  0.00  0.00
  HS02004777HS02004785    1.00   0.00  0.00  0.00  1.00  0.00  0.00  0.00  0.09  0.00
  HS02004785HS02004788    1.00   0.00  0.00  0.00  1.00  0.00  0.00  0.00  0.00  0.00
  HS02004788HS02004792    1.00   0.00  0.00  0.00  0.99  0.01  0.00  0.00  0.74  0.00
  HS02004792HS02004799    1.00   0.00  0.00  0.00  0.99  0.01  0.00  0.00  0.73  0.00
  HS02004799HS02004480    1.00   0.00  0.05  0.00  0.88  0.00  0.07  0.00  0.00  0.00
  HS02004802HS02004478    1.00   0.11  0.00  0.00  0.89  0.00  0.00  0.00  0.01  0.00
  HS02004807HS02004802    1.00   0.11  0.00  0.00  0.88  0.00  0.00  0.00  0.00  0.00
  HS02004817HS02004807    1.00   0.00  0.11  0.00  0.89  0.00  0.00  0.00  0.01  0.00
  HS02004817HS02004824    1.00   0.00  0.00  0.00  1.00  0.00  0.00  0.00  0.73  0.00
  HS02004824HS02004830    1.00   0.00  0.00  0.00  1.00  0.00  0.00  0.00  0.00  0.00
  HS02004830HS02004837    1.00   0.00  0.00  0.00  1.00  0.00  0.00  0.00  0.73  0.00
  HS02004837HS02004842    1.00   0.00  0.00  0.00  1.00  0.00  0.00  0.00  0.11  0.00
  HS02004842HS02004848    1.00   0.00  0.11  0.00  0.89  0.00  0.00  0.00  0.50  0.00
  HS02004848HS02004852    1.00   0.11  0.00  0.00  0.89  0.00  0.00  0.00  0.61  0.00
  HS02004852HS02004856    1.00   0.11  0.00  0.00  0.89  0.00  0.00  0.00  0.60  0.00
  HS02004856HS02004862    1.00   0.00  0.12  0.00  0.88  0.00  0.00  0.00  0.62  0.00
  HS02004862HS02004870    1.00   0.00  0.00  0.00  1.00  0.00  0.00  0.00  0.01  0.00
  HS02004870HS02004876    1.00   0.00  0.00  0.00  0.98  0.02  0.00  0.00  0.70  0.00
  HS02004876HS02004881    1.00   0.02  0.00  0.00  0.90  0.09  0.00  0.00  0.00  0.00
  HS02004881HS02006253    1.00   0.00  0.07  0.00  0.60  0.02  0.00  0.32  0.15  0.00
  HS02004901HS02004770    1.00   0.11  0.00  0.00  0.89  0.00  0.00  0.00  0.00  0.00
  WS02001211WS02001212    1.00   0.00  0.02  0.00  0.98  0.00  0.00  0.00  0.00  0.00
  WS02001212WS02001213    1.00   0.02  0.00  0.00  0.63  0.00  0.34  0.00  0.00  0.00
  WS02001213WS02003059    1.00   0.00  0.00  0.00  0.99  0.00  0.00  0.00  0.00  0.00
  WS02003059WS02003060    1.00   0.00  0.00  0.00  1.00  0.00  0.00  0.00  0.03  0.00
  WS02003060WS02003069    1.00   0.00  0.00  0.00  0.97  0.03  0.00  0.00  0.51  0.00
  WS02003066WSF200        1.00   0.07  0.00  0.00  0.00  0.93  0.00  0.00  0.56  0.00
  WS02003067WS02003066    1.00   0.06  0.00  0.00  0.93  0.00  0.00  0.00  0.00  0.00
  WS02003069WS02003072    1.00   0.00  0.00  0.00  1.00  0.00  0.00  0.00  0.53  0.00
  WS02003072WS02003073    1.00   0.00  0.00  0.00  0.00  0.00  0.00  1.00  0.00  0.00
  WS02004138WS02004139    1.00   0.00  0.01  0.00  0.97  0.01  0.00  0.01  0.98  0.00
  WS02004139WS02001211    1.00   0.00  0.00  0.00  0.99  0.00  0.00  0.00  0.00  0.00
  WS02004401WS02004402    1.00   0.02  0.00  0.00  0.98  0.00  0.00  0.00  0.00  0.00
  WS02004402WS02004403    1.00   0.02  0.00  0.00  0.97  0.00  0.00  0.00  0.00  0.00
  WS02004403WS02004404    1.00   0.00  0.03  0.00  0.97  0.00  0.00  0.00  0.00  0.00
  WS02004404WS02004405    1.00   0.00  0.00  0.00  1.00  0.00  0.00  0.00  0.00  0.00
  WS02004405WS02004406    1.00   0.00  0.00  0.00  1.00  0.00  0.00  0.00  0.00  0.00
  WS02004406WS02004407    1.00   0.00  0.05  0.00  0.95  0.00  0.00  0.00  0.00  0.00
  WS02004407WS02004409    1.00   0.05  0.00  0.00  0.94  0.02  0.00  0.00  0.71  0.00
  WS02004409WS02004410    1.00   0.05  0.00  0.00  0.95  0.00  0.00  0.00  0.00  0.00
  WS02004410WS02004411    1.00   0.05  0.00  0.00  0.95  0.00  0.00  0.00  0.00  0.00
  WS02004411WS02004412    1.00   0.05  0.00  0.00  0.95  0.00  0.00  0.00  0.00  0.00
  WS02004412WS02004413    1.00   0.05  0.00  0.00  0.95  0.00  0.00  0.00  0.00  0.00
  WS02004413WS02003067    1.00   0.05  0.01  0.00  0.00  0.00  0.94  0.00  0.00  0.00
  WS02006109WS02006110    1.00   0.00  0.01  0.00  0.99  0.00  0.01  0.00  0.00  0.00
  WS02006110WS02006113    1.00   0.01  0.01  0.00  0.99  0.00  0.00  0.00  0.00  0.00
  WS02006111WS02006112    1.00   0.02  0.00  0.00  0.98  0.00  0.00  0.00  0.67  0.00
  WS02006112WS02006115    1.00   0.02  0.00  0.00  0.97  0.00  0.01  0.00  0.00  0.00
  WS02006113WS02006111    1.00   0.01  0.00  0.00  0.48  0.51  0.00  0.00  0.07  0.00
  WS02006115WS02006116    1.00   0.02  0.00  0.00  0.97  0.00  0.00  0.01  0.00  0.00
  WS02006116WS02004401    1.00   0.02  0.00  0.00  0.98  0.00  0.00  0.00  0.00  0.00
  WS02006228WS02006109    1.00   0.00  0.00  0.00  1.00  0.00  0.00  0.00  0.00  0.00
  WS02006229WS02006228    1.00   0.00  0.00  0.00  0.99  0.00  0.00  0.01  0.00  0.00
  WS02006230WS02006229    1.00   0.00  0.00  0.00  0.99  0.00  0.00  0.01  0.03  0.00
  WS02006231WS02006230    1.00   0.00  0.00  0.00  0.67  0.00  0.33  0.00  0.00  0.00
  WS02006232WS02006231    1.00   0.00  0.00  0.00  1.00  0.00  0.00  0.00  0.00  0.00
  WS02006234WS02006232    1.00   0.00  0.00  0.00  1.00  0.00  0.00  0.00  0.05  0.00
  WS02006235WS02006234    1.00   0.00  0.00  0.00  0.88  0.00  0.12  0.00  0.00  0.00
  WS02006238WS02006235    1.00   0.00  0.00  0.00  1.00  0.00  0.00  0.00  0.01  0.00
  WS02006239WS02006238    1.00   0.00  0.00  0.00  1.00  0.00  0.00  0.00  0.19  0.00
  WS02006240WS02006239    1.00   0.00  0.00  0.00  0.79  0.00  0.00  0.20  0.02  0.00
  WS02006242WS02006240    1.00   0.00  0.00  0.00  0.99  0.00  0.01  0.00  0.00  0.00
  WS02006243WS02006242    1.00   0.00  0.00  0.00  0.99  0.00  0.00  0.01  0.53  0.00
  WS02006245WS02006243    1.00   0.00  0.00  0.00  0.93  0.00  0.00  0.06  0.00  0.00
  WS02006247WS02006245    1.00   0.00  0.00  0.00  0.99  0.00  0.00  0.01  0.00  0.00
  WS02006248WS02006247    1.00   0.00  0.00  0.00  0.99  0.00  0.00  0.01  0.53  0.00
  WS02006249WS02006248    1.00   0.00  0.00  0.00  0.70  0.00  0.30  0.00  0.00  0.00
  WS02006251WS02006249    1.00   0.00  0.00  0.00  1.00  0.00  0.00  0.00  0.52  0.00
  WS02006252WS02006251    1.00   0.00  0.00  0.00  0.59  0.00  0.41  0.00  0.00  0.00
  WS02006253WS02006251    1.00   0.00  0.00  0.00  0.98  0.00  0.02  0.00  0.00  0.00
  WS02006256WS02006235    1.00   0.00  0.00  0.00  0.99  0.01  0.00  0.00  0.01  0.00
  WS02006280WS02006229    1.00   0.12  0.00  0.00  0.43  0.04  0.00  0.41  0.01  0.00
  WS02006284WS02006280    1.00   0.12  0.00  0.00  0.43  0.00  0.00  0.45  0.00  0.00
  WS02006287WS02006284    1.00   0.10  0.01  0.00  0.66  0.21  0.00  0.01  0.61  0.00
  WSF200WS02003060        1.00   0.00  0.07  0.00  0.31  0.62  0.00  0.00  0.52  0.00
  YS02001580YS02001583    1.00   0.13  0.31  0.00  0.56  0.00  0.00  0.00  0.61  0.00
  YS02001583YS02001586    1.00   0.24  0.14  0.00  0.61  0.00  0.00  0.00  0.61  0.00
  YS02001586YS02001590    1.00   0.11  0.00  0.00  0.68  0.02  0.00  0.18  0.26  0.00
  YS02001590YS02001593    1.00   0.11  0.00  0.00  0.44  0.00  0.44  0.00  0.00  0.00
  YS02001593YS02001596    1.00   0.11  0.00  0.00  0.46  0.01  0.00  0.42  0.01  0.00
  YS02001596YS02001600    1.00   0.11  0.00  0.00  0.49  0.01  0.00  0.38  0.02  0.00
  YS02001600YS02001601    1.00   0.11  0.00  0.00  0.88  0.00  0.00  0.00  0.54  0.00
  YS02001601YS02001602    1.00   0.11  0.00  0.00  0.89  0.00  0.00  0.00  0.00  0.00
  YS02001602YS02001605    1.00   0.11  0.00  0.00  0.89  0.00  0.00  0.00  0.00  0.00
  YS02001605YS02001607    1.00   0.11  0.00  0.00  0.89  0.00  0.00  0.00  0.00  0.00
  YS02001607YS02001610    1.00   0.11  0.00  0.00  0.89  0.00  0.00  0.00  0.00  0.00
  YS02001610YS02001613    1.00   0.11  0.00  0.00  0.89  0.00  0.00  0.00  0.00  0.00
  YS02001613YS02001616    1.00   0.11  0.00  0.00  0.89  0.00  0.00  0.00  0.00  0.00
  YS02001616YS02001619    1.00   0.11  0.00  0.00  0.89  0.00  0.00  0.00  0.00  0.00
  YS02001619YS02001622    1.00   0.11  0.00  0.00  0.88  0.01  0.00  0.00  0.25  0.00
  YS02001622YS02001625    1.00   0.11  0.00  0.00  0.88  0.00  0.00  0.00  0.01  0.00
  YS02001625YS02001629    1.00   0.11  0.01  0.00  0.48  0.00  0.40  0.00  0.00  0.00
  YS02001629YS02163301    1.00   0.11  0.00  0.00  0.88  0.00  0.00  0.00  0.00  0.00
  YS02001633YS02163601    1.00   0.00  0.00  0.00  1.00  0.00  0.00  0.00  0.12  0.00
  YS02001641YS02001644    1.00   0.00  0.00  0.00  1.00  0.00  0.00  0.00  0.00  0.00
  YS02001644YS02001647    1.00   0.00  0.12  0.00  0.88  0.00  0.00  0.00  0.00  0.00
  YS02001647YS02001649    1.00   0.00  0.12  0.00  0.69  0.20  0.00  0.00  0.53  0.00
  YS02001649YS02001757    1.00   0.00  0.00  0.00  0.83  0.17  0.00  0.00  0.34  0.00
  YS02001652YS02001649    1.00   0.00  0.00  0.00  0.99  0.01  0.00  0.00  0.66  0.00
  YS02001655YS02001652    1.00   0.00  0.00  0.00  0.51  0.00  0.00  0.49  0.02  0.00
  YS02001658YS02001655    1.00   0.00  0.11  0.00  0.78  0.11  0.00  0.00  0.59  0.00
  YS02001661YS02001658    1.00   0.11  0.00  0.00  0.64  0.25  0.00  0.00  0.66  0.00
  YS02001664YS02001661    1.00   0.11  0.00  0.00  0.64  0.25  0.00  0.00  0.86  0.00
  YS02001745YS02001748    1.00   0.00  0.00  0.00  0.43  0.01  0.00  0.56  0.15  0.00
  YS02001748YS02001751    1.00   0.00  0.00  0.00  0.92  0.08  0.00  0.00  0.70  0.00
  YS02001751YS02001754    1.00   0.00  0.00  0.00  0.50  0.00  0.00  0.49  0.02  0.00
  YS02001754YS02001757    1.00   0.00  0.00  0.00  1.00  0.00  0.00  0.00  0.69  0.00
  YS02001757CaochengTiaoxuchi    1.00   0.00  0.00  0.00  0.68  0.32  0.00  0.00  0.44  0.00
  YS02001759YS02001757    1.00   0.00  0.00  0.00  1.00  0.00  0.00  0.00  0.61  0.00
  YS02001762YS02001759    1.00   0.00  0.00  0.00  1.00  0.00  0.00  0.00  0.02  0.00
  YS02001765YS02001762    1.00   0.00  0.00  0.00  1.00  0.00  0.00  0.00  0.65  0.00
  YS02001767YS02001765    1.00   0.00  0.00  0.00  1.00  0.00  0.00  0.00  0.00  0.00
  YS02001770YS02001767    1.00   0.00  0.00  0.00  1.00  0.00  0.00  0.00  0.00  0.00
  YS02001774YS02001770    1.00   0.00  0.11  0.00  0.81  0.00  0.07  0.00  0.00  0.00
  YS02001779YS02001774    1.00   0.00  0.00  0.00  1.00  0.00  0.00  0.00  0.68  0.00
  YS02001783YS02001784    1.00   0.00  0.12  0.00  0.88  0.00  0.00  0.00  0.53  0.00
  YS02001784YS02001785    1.00   0.00  0.00  0.00  1.00  0.00  0.00  0.00  0.12  0.00
  YS02001786YS02001788    1.00   0.00  0.00  0.00  0.75  0.25  0.00  0.00  0.00  0.00
  YS02001788YS02001790    1.00   0.00  0.00  0.00  0.25  0.75  0.00  0.00  0.73  0.00
  YS02001790YS02001791    1.00   0.00  0.00  0.00  0.01  0.99  0.00  0.00  0.10  0.00
  YS02001791YS02001793    1.00   0.00  0.00  0.00  0.00  1.00  0.00  0.00  0.03  0.00
  YS02001793JiankangQianchi    1.00   0.00  0.00  0.00  0.10  0.90  0.00  0.00  0.55  0.00
  YS02001882YS02001884    1.00   0.12  0.00  0.00  0.88  0.00  0.00  0.00  0.00  0.00
  YS02001884YS02001887    1.00   0.08  0.03  0.00  0.89  0.00  0.00  0.00  0.00  0.00
  YS02001887YS02001890    1.00   0.00  0.00  0.00  0.96  0.00  0.03  0.00  0.00  0.00
  YS02001890YS02001895    1.00   0.00  0.11  0.00  0.88  0.00  0.00  0.00  0.00  0.00
  YS02001895YS02001898    1.00   0.12  0.00  0.00  0.88  0.00  0.00  0.00  0.00  0.00
  YS02001898YS02001901    1.00   0.12  0.00  0.00  0.88  0.00  0.00  0.00  0.00  0.00
  YS02001901YS02001904    1.00   0.12  0.00  0.00  0.88  0.00  0.00  0.00  0.00  0.00
  YS02001904YS02001907    1.00   0.00  0.11  0.00  0.88  0.00  0.00  0.00  0.00  0.00
  YS02001907YS02006553    1.00   0.00  0.02  0.00  0.98  0.00  0.00  0.00  0.00  0.00
  YS02001910YS02001907    1.00   0.00  0.00  0.00  0.97  0.01  0.00  0.03  0.10  0.00
  YS02001915YS02001910    1.00   0.00  0.00  0.00  0.98  0.02  0.00  0.00  0.11  0.00
  YS02001918YS02001915    1.00   0.00  0.00  0.00  0.97  0.02  0.00  0.00  0.63  0.00
  YS02001920YS02001918    1.00   0.00  0.00  0.00  1.00  0.00  0.00  0.00  0.00  0.00
  YS02001923YS02001920    1.00   0.00  0.00  0.00  1.00  0.00  0.00  0.00  0.77  0.00
  YS02001926YS02001923    1.00   0.00  0.09  0.00  0.29  0.00  0.62  0.00  0.00  0.00
  YS02001929YS02001926    1.00   0.00  0.11  0.00  0.89  0.00  0.00  0.00  0.72  0.00
  YS02006553YS02006556    1.00   0.01  0.00  0.00  0.99  0.00  0.00  0.00  0.03  0.00
  YS02006556YS02006558    1.00   0.00  0.00  0.00  1.00  0.00  0.00  0.00  0.00  0.00
  YS02006558YS02006561    1.00   0.12  0.00  0.00  0.26  0.62  0.00  0.00  0.12  0.00
  YS02006561YS02001783    1.00   0.12  0.00  0.00  0.41  0.47  0.00  0.00  0.60  0.00
  YS02163301YS02001633    1.00   0.00  0.11  0.00  0.89  0.00  0.00  0.00  0.00  0.00
  YS02163601YS02164001    1.00   0.00  0.09  0.00  0.91  0.00  0.00  0.00  0.00  0.00
  YS02164001YS02001641    1.00   0.00  0.09  0.00  0.91  0.00  0.00  0.00  0.05  0.00
  YSB1154YSB6556          1.00   0.11  0.00  0.00  0.89  0.00  0.00  0.00  0.00  0.00
  YSB1171HS02004479       1.00   0.05  0.00  0.00  0.93  0.00  0.00  0.02  0.08  0.00
  YSB1174YSB1171          1.00   0.07  0.03  0.00  0.90  0.00  0.00  0.00  0.00  0.00
  YSB6556YSB1171          1.00   0.05  0.06  0.00  0.89  0.00  0.00  0.00  0.00  0.00
  
  
  *************************
  Conduit Surcharge Summary
  *************************
  
  ----------------------------------------------------------------------------
                                                           Hours        Hours 
                         --------- Hours Full --------   Above Full   Capacity
  Conduit                Both Ends  Upstream  Dnstream   Normal Flow   Limited
  ----------------------------------------------------------------------------
  HS02004478WS02006287        1.81      1.81      1.89      0.01         0.01
  HS02004479HS02004480        1.93      1.93      1.94      0.01         0.01
  HS02004480HS02004478        1.86      1.92      1.86      2.30         1.86
  HS02004770HS02004777        1.86      1.87      1.87      0.70         0.52
  HS02004777HS02004785        1.83      1.83      1.87      0.01         0.01
  HS02004785HS02004788        1.82      1.83      1.82      2.15         1.80
  HS02004788HS02004792        1.82      1.82      1.90      0.01         0.01
  HS02004792HS02004799        1.90      1.90      1.96      0.01         0.01
  HS02004799HS02004480        1.92      1.92      1.96      1.99         0.01
  HS02004802HS02004478        1.86      1.86      1.93      0.01         0.01
  HS02004807HS02004802        1.90      1.90      1.92      0.15         0.20
  HS02004817HS02004807        1.90      1.90      2.11      0.01         0.01
  HS02004817HS02004824        1.82      1.82      2.11      0.01         0.01
  HS02004824HS02004830        1.79      1.79      1.82      0.01         0.01
  HS02004830HS02004837        1.39      1.39      1.79      0.01         0.01
  HS02004837HS02004842        1.39      1.39      1.85      0.01         0.01
  HS02004842HS02004848        1.28      1.28      1.85      0.01         0.01
  HS02004848HS02004852        1.28      1.28      1.49      0.03         0.01
  HS02004852HS02004856        1.49      1.49      1.75      0.02         0.01
  HS02004856HS02004862        1.38      1.38      1.76      0.01         0.01
  HS02004862HS02004870        1.76      1.76      1.79      0.01         0.04
  HS02004870HS02004876        1.79      1.79      1.84      0.01         0.01
  HS02004876HS02004881        1.82      1.84      1.82      2.21         1.82
  HS02004881HS02006253        1.82      1.82      3.00      0.01         0.01
  HS02004901HS02004770        1.87      1.87      1.87      0.37         0.07
  WS02003072WS02003073        0.01      0.01      0.01      3.35         0.01
  WS02004401WS02004402        2.29      2.29      2.32      2.15         2.10
  WS02004402WS02004403        2.32      2.32      2.33      2.30         2.27
  WS02004403WS02004404        2.33      2.33      2.49      0.01         0.02
  WS02004404WS02004405        2.46      2.49      2.46      3.89         2.45
  WS02004405WS02004406        2.42      2.46      2.42      2.89         2.42
  WS02004406WS02004407        0.01      0.01      2.42      0.01         0.01
  WS02004407WS02004409        0.01      0.01      1.96      0.01         0.01
  WS02004409WS02004410        1.94      1.96      1.94      2.19         1.94
  WS02004410WS02004411        1.93      1.94      1.93      2.24         1.93
  WS02004411WS02004412        1.89      1.93      1.89      2.28         1.89
  WS02004412WS02004413        1.89      1.89      2.07      0.01         0.01
  WS02004413WS02003067        0.01      0.01      2.07      0.01         0.01
  WS02006109WS02006110        2.79      2.79      3.29      2.81         0.01
  WS02006110WS02006113        2.06      2.06      3.25      1.37         0.01
  WS02006111WS02006112        2.03      2.03      3.36      0.01         0.01
  WS02006112WS02006115        2.20      2.20      3.01      0.01         0.01
  WS02006113WS02006111        2.05      2.06      2.05      2.14         2.05
  WS02006115WS02006116        2.21      2.21      2.21      2.21         2.16
  WS02006116WS02004401        2.28      2.28      2.29      2.27         2.24
  WS02006228WS02006109        3.19      3.28      3.19      3.55         3.19
  WS02006229WS02006228        3.17      3.23      3.17      3.44         3.17
  WS02006230WS02006229        3.36      3.39      3.36      3.96         1.28
  WS02006231WS02006230        2.55      2.55      2.86      3.76         2.05
  WS02006232WS02006231        2.81      2.81      3.25      0.03         0.40
  WS02006234WS02006232        3.05      3.05      3.25      0.03         0.05
  WS02006235WS02006234        3.03      3.04      3.13      3.61         2.00
  WS02006238WS02006235        3.15      3.15      3.24      0.02         0.42
  WS02006239WS02006238        3.17      3.22      3.18      3.15         1.01
  WS02006240WS02006239        3.13      3.15      3.13      3.13         0.95
  WS02006242WS02006240        3.13      3.13      3.28      3.25         1.81
  WS02006243WS02006242        3.16      3.16      3.25      0.01         0.02
  WS02006245WS02006243        3.14      3.16      3.15      1.14         0.92
  WS02006247WS02006245        3.14      3.18      3.14      3.44         1.10
  WS02006248WS02006247        3.14      3.14      3.17      0.01         0.07
  WS02006249WS02006248        3.12      3.12      3.15      1.38         0.01
  WS02006251WS02006249        3.15      3.16      3.15      3.37         3.13
  WS02006252WS02006251        3.36      3.36      3.36      2.27         0.01
  WS02006253WS02006251        3.15      3.15      3.20      1.99         0.01
  WS02006256WS02006235        3.64      3.67      6.49      0.09         0.20
  WS02006280WS02006229        1.94      1.94      1.97      0.01         0.01
  WS02006284WS02006280        1.90      1.90      1.94      0.01         0.01
  WS02006287WS02006284        1.86      1.86      1.91      0.56         0.55
  YS02001580YS02001583        1.83      1.83      1.86      0.01         0.01
  YS02001583YS02001586        1.83      1.83      1.93      0.01         0.01
  YS02001586YS02001590        1.93      1.93      1.98      0.01         0.01
  YS02001590YS02001593        1.98      1.98      1.99      1.99         0.01
  YS02001593YS02001596        1.98      1.98      2.04      0.01         0.01
  YS02001596YS02001600        2.06      2.06      2.10      0.01         0.01
  YS02001600YS02001601        2.13      2.13      2.28      0.01         0.01
  YS02001601YS02001602        2.22      2.22      2.30      2.11         0.01
  YS02001602YS02001605        2.20      2.20      2.22      2.80         0.01
  YS02001605YS02001607        2.18      2.20      2.19      2.21         2.17
  YS02001607YS02001610        1.95      1.95      1.96      0.01         0.01
  YS02001610YS02001613        1.95      1.95      1.96      0.01         0.01
  YS02001613YS02001616        1.92      1.92      1.95      0.01         0.01
  YS02001616YS02001619        1.91      1.91      1.92      0.01         0.01
  YS02001619YS02001622        1.91      1.91      1.91      1.94         1.68
  YS02001622YS02001625        1.91      1.91      2.03      0.01         0.01
  YS02001625YS02001629        1.88      1.88      2.03      0.01         0.01
  YS02001629YS02163301        2.03      2.03      2.04      0.06         0.33
  YS02001633YS02163601        2.05      2.05      2.08      1.66         1.53
  YS02001641YS02001644        2.02      2.03      2.02      2.32         1.99
  YS02001644YS02001647        1.85      1.85      2.02      0.04         0.01
  YS02001647YS02001649        1.85      1.85      1.96      0.01         0.01
  YS02001649YS02001757        1.95      1.96      2.01      1.00         1.06
  YS02001652YS02001649        1.82      1.82      1.96      0.01         0.02
  YS02001655YS02001652        0.64      0.64      1.81      0.01         0.02
  YS02001658YS02001655        0.02      0.02      0.64      0.01         0.01
  YS02001661YS02001658        0.01      0.01      0.02      0.01         0.01
  YS02001748YS02001751        0.01      0.01      0.02      0.01         0.01
  YS02001751YS02001754        0.02      0.02      1.20      0.01         0.01
  YS02001754YS02001757        1.45      1.45      2.01      0.01         0.01
  YS02001757CaochengTiaoxuchi        1.45      2.01      1.89      1.11         0.51
  YS02001759YS02001757        1.94      1.94      2.01      0.01         0.01
  YS02001762YS02001759        1.91      1.91      1.94      0.01         0.02
  YS02001765YS02001762        1.86      1.87      1.91      0.01         0.01
  YS02001767YS02001765        1.85      1.85      1.87      0.01         0.02
  YS02001770YS02001767        1.85      1.85      1.85      1.86         1.29
  YS02001774YS02001770        1.83      1.83      1.90      0.01         0.01
  YS02001779YS02001774        1.35      1.35      1.90      0.01         0.01
  YS02001783YS02001784        1.57      1.80      1.57      1.90         1.57
  YS02001784YS02001785        1.14      1.57      1.14      2.00         1.14
  YS02001786YS02001788        0.01      1.14      0.01      1.96         0.01
  YS02001790YS02001791        0.01      0.01      0.01      1.51         0.01
  YS02001882YS02001884        1.29      1.29      1.35      0.01         0.01
  YS02001884YS02001887        1.52      1.52      1.78      0.01         0.01
  YS02001887YS02001890        1.80      1.80      1.81      0.01         0.01
  YS02001890YS02001895        1.26      1.26      1.83      0.01         0.01
  YS02001895YS02001898        1.24      1.24      1.26      0.01         0.01
  YS02001898YS02001901        1.27      1.27      1.53      0.01         0.01
  YS02001901YS02001904        1.42      1.42      1.53      0.01         0.01
  YS02001904YS02001907        1.42      1.42      1.95      0.01         0.01
  YS02001907YS02006553        2.00      2.00      2.02      0.01         0.01
  YS02001910YS02001907        1.83      1.83      1.94      0.01         0.01
  YS02001915YS02001910        1.30      1.30      1.83      0.01         0.01
  YS02001918YS02001915        1.11      1.11      1.30      0.01         0.01
  YS02001920YS02001918        1.11      1.11      1.14      0.01         0.01
  YS02001923YS02001920        1.04      1.04      1.14      0.01         0.01
  YS02001926YS02001923        0.01      0.01      0.01      0.01         0.01
  YS02001929YS02001926        0.01      0.01      0.01      0.01         0.01
  YS02006553YS02006556        1.89      1.89      1.95      0.01         0.01
  YS02006556YS02006558        1.92      1.92      1.95      0.01         0.01
  YS02006558YS02006561        1.17      1.88      1.17      1.98         1.17
  YS02006561YS02001783        1.07      1.07      1.80      0.01         0.01
  YS02163301YS02001633        2.04      2.04      2.06      0.01         0.01
  YS02163601YS02164001        2.03      2.03      2.08      0.11         0.01
  YS02164001YS02001641        2.03      2.03      2.03      2.00         1.92
  YSB1154YSB6556              1.95      1.95      2.00      0.01         0.01
  YSB1171HS02004479           1.90      1.90      2.00      0.01         0.01
  YSB1174YSB1171              1.98      1.98      2.06      0.01         0.01
  YSB6556YSB1171              1.95      1.95      2.11      0.01         0.01
  
  
  ***************
  Pumping Summary
  ***************
  
  ---------------------------------------------------------------------------------------------------------
                                                  Min       Avg       Max     Total     Power    % Time Off
                        Percent   Number of      Flow      Flow      Flow    Volume     Usage    Pump Curve
  Pump                 Utilized   Start-Ups       LPS       LPS       LPS  10^6 ltr     Kw-hr    Low   High
  ---------------------------------------------------------------------------------------------------------
  CC-R1                   41.95           2      0.00    683.00    683.00     8.252    147.29    0.0   43.8
  CC-R2                   41.95           2      0.00    683.00    683.00     8.252    147.29    0.0   43.8
  CC-S1                   41.95           2      0.00    200.00    200.00     2.416     18.57    0.0   13.4
  CC-S2                   41.95           2      0.00    200.00    200.00     2.416     18.57    0.0   13.4
  JK-R1                   13.25         590      0.00    996.53   1000.00     3.786      9.11    0.0    0.0
  JK-R2                   13.25         590      0.00    996.53   1000.00     3.786      9.11    0.0    0.0
  JK-S                    13.25         590      0.00    299.89    300.00     1.143     26.15    0.0    0.0
  XR-1                    97.91           2      0.00     95.00     95.00     2.679      9.63    0.0    0.0
  XR-2                    93.94           2      0.00     95.00     95.00     2.570      8.78    0.0    0.0
  XR-3                     0.00           1      0.00     95.00     95.00     0.000      0.00    0.0    0.0
  XR-4                     0.00           1      0.00     95.00     95.00     0.000      0.00    0.0    0.0
  

  Analysis begun on:  Tue Jul 18 19:00:33 2023
  Analysis ended on:  Tue Jul 18 19:00:39 2023
  Total elapsed time: 00:00:06