
  OWA STORM WATER MANAGEMENT MODEL - VERSION v5.1.14 (OWA 2022-07-31)
  --------------------------------------------------------------

  WARNING 04: minimum elevation drop used for Conduit WS02004404WS02004405
  WARNING 03: negative offset ignored for Link YS02001904YS02001907
  
  *********************************************************
  NOTE: The summary statistics displayed in this report are
  based on results found at every computational time step,  
  not just on results from each reporting time step.
  *********************************************************
  
  ****************
  Analysis Options
  ****************
  Flow Units ............... LPS
  Process Models:
    Rainfall/Runoff ........ YES
    RDII ................... NO
    Snowmelt ............... NO
    Groundwater ............ NO
    Flow Routing ........... YES
    Ponding Allowed ........ NO
    Water Quality .......... NO
  Infiltration Method ...... HORTON
  Flow Routing Method ...... DYNWAVE
  Surcharge Method ......... EXTRAN
  Starting Date ............ 08/28/2015 08:00:00
  Ending Date .............. 08/28/2015 16:00:00
  Antecedent Dry Days ...... 8.0
  Report Time Step ......... 00:01:00
  Wet Time Step ............ 00:01:00
  Dry Time Step ............ 00:01:00
  Routing Time Step ........ 30.00 sec
  Variable Time Step ....... YES
  Maximum Trials ........... 8
  Number of Threads ........ 4
  Head Tolerance ........... 0.001500 m
  
  
  **************************        Volume         Depth
  Runoff Quantity Continuity     hectare-m            mm
  **************************     ---------       -------
  Total Precipitation ......         2.819        46.533
  Evaporation Loss .........         0.000         0.000
  Infiltration Loss ........         0.235         3.883
  Surface Runoff ...........         2.523        41.649
  Final Storage ............         0.061         1.006
  Continuity Error (%) .....        -0.013
  
  
  **************************        Volume        Volume
  Flow Routing Continuity        hectare-m      10^6 ltr
  **************************     ---------     ---------
  Dry Weather Inflow .......         0.630         6.296
  Wet Weather Inflow .......         2.522        25.222
  Groundwater Inflow .......         0.000         0.000
  RDII Inflow ..............         0.000         0.000
  External Inflow ..........         0.105         1.045
  External Outflow .........         3.052        30.522
  Flooding Loss ............         0.409         4.087
  Evaporation Loss .........         0.000         0.000
  Exfiltration Loss ........         0.000         0.000
  Initial Stored Volume ....         0.303         3.031
  Final Stored Volume ......         0.180         1.803
  Continuity Error (%) .....        -2.297
  
  
  *************************
  Highest Continuity Errors
  *************************
  Node JK-storage (-15.22%)
  Node HS02004842 (6.71%)
  Node YS02001884 (4.93%)
  Node YS02001583 (-3.37%)
  Node YS02001774 (2.14%)
  
  
  ***************************
  Time-Step Critical Elements
  ***************************
  Link WS02006280WS02006229 (41.49%)
  Link YS02001793JiankangQianchi (22.45%)
  Link WS02006238WS02006235 (12.09%)
  Link WS02006252WS02006251 (3.84%)
  Link WS02003066WSF200 (3.34%)
  
  
  ********************************
  Highest Flow Instability Indexes
  ********************************
  Link WS02004404WS02004405 (42)
  Link WS02004403WS02004404 (40)
  Link WS02006252WS02006251 (38)
  Link WS02004402WS02004403 (36)
  Link WS02004401WS02004402 (34)
  
  
  *************************
  Routing Time Step Summary
  *************************
  Minimum Time Step           :     0.01 sec
  Average Time Step           :     2.36 sec
  Maximum Time Step           :     6.46 sec
  Percent in Steady State     :     0.00
  Average Iterations per Step :     5.00
  Percent Not Converging      :    44.50
  
  
  ***************************
  Subcatchment Runoff Summary
  ***************************
  
  ------------------------------------------------------------------------------------------------------------------------------
                            Total      Total      Total      Total     Imperv       Perv      Total       Total     Peak  Runoff
                           Precip      Runon       Evap      Infil     Runoff     Runoff     Runoff      Runoff   Runoff   Coeff
  Subcatchment                 mm         mm         mm         mm         mm         mm         mm    10^6 ltr      LPS
  ------------------------------------------------------------------------------------------------------------------------------
  sub0                      30.07       0.00       0.00       1.02      26.70       1.08      27.79        0.02     5.56   0.924
  sub1                      30.07       0.00       0.00       1.70      25.51       1.61      27.11        0.18    41.93   0.902
  sub2                      30.07       0.00       0.00       6.94      18.04       4.18      22.22        0.21    41.55   0.739
  sub3                      30.07       0.00       0.00       7.34      18.00       3.79      21.79        0.49    93.45   0.725
  sub4                      30.07       0.00       0.00       1.84      25.35       1.47      26.82        0.56   110.58   0.892
  sub5                      30.07       0.00       0.00       1.06      26.65       1.05      27.70        0.31    73.42   0.921
  sub7                      30.07       0.00       0.00       1.35      26.11       1.36      27.47        0.09    22.46   0.914
  sub8                      30.07       0.00       0.00       1.36      26.10       1.35      27.45        0.18    42.05   0.913
  sub9                      30.07       0.00       0.00       1.36      26.10       1.35      27.45        0.13    31.56   0.913
  sub10                     30.07       0.00       0.00       1.21      26.37       1.20      27.57        0.30    71.67   0.917
  sub11                     30.07       0.00       0.00       1.20      26.39       1.21      27.60        0.32    77.23   0.918
  sub12                     30.07       0.00       0.00       1.95      24.98       1.96      26.94        0.24    57.86   0.896
  sub14                     30.07       0.00       0.00       1.36      26.10       1.35      27.44        0.26    62.29   0.913
  sub15                     30.07       0.00       0.00       5.08      20.07       3.94      24.01        0.41    90.55   0.798
  sub16                     30.07       0.00       0.00       5.35      19.23       4.58      23.81        0.25    56.60   0.792
  sub17                     30.07       0.00       0.00       5.21      19.52       4.42      23.93        0.21    46.52   0.796
  sub22                     30.07       0.00       0.00       7.58      16.35       5.35      21.70        1.37   284.10   0.722
  sub23                     30.07       0.00       0.00       6.28      18.08       4.85      22.92        1.09   236.97   0.762
  sub60                     60.14       0.00       0.00       1.88      51.71       5.33      57.05        0.75   180.14   0.949
  sub61                     60.14       0.00       0.00       2.73      48.78       7.50      56.28        1.03   248.85   0.936
  sub62                     60.14       0.00       0.00       1.26      54.03       3.56      57.59        1.58   374.12   0.958
  sub63                     60.14       0.00       0.00       4.98      41.72      12.46      54.18        1.23   289.31   0.901
  sub64                     60.14       0.00       0.00       2.53      49.90       6.50      56.40        1.35   317.06   0.938
  sub65                     60.14       0.00       0.00       2.19      51.06       5.63      56.69        1.56   362.44   0.943
  sub66                     60.14       0.00       0.00       6.01      41.62      11.43      53.05        2.47   513.29   0.882
  sub67                     60.14       0.00       0.00       1.21      54.08       3.60      57.68        1.07   257.67   0.959
  sub68                     60.14       0.00       0.00       2.26      50.53       6.16      56.69        1.56   373.09   0.943
  sub69                     60.14       0.00       0.00       2.01      51.00       7.01      58.01        2.15   488.39   0.965
  sub70                     60.14       0.00       0.00       6.41      39.52      14.03      53.56        1.55   301.65   0.891
  sub71                     60.14       0.00       0.00       1.29      53.99       3.53      57.52        1.50   349.87   0.956
  sub72                     60.14       0.00       0.00       1.14      54.52       3.07      57.59        0.79   178.70   0.958
  
  
  ******************
  Node Depth Summary
  ******************
  
  ---------------------------------------------------------------------------------
                                 Average  Maximum  Maximum  Time of Max    Reported
                                   Depth    Depth      HGL   Occurrence   Max Depth
  Node                 Type       Meters   Meters   Meters  days hr:min      Meters
  ---------------------------------------------------------------------------------
  HS02004478           JUNCTION     0.15     0.40     9.63     0  01:38        0.40
  HS02004479           JUNCTION     0.23     0.55     9.75     0  01:37        0.55
  HS02004480           JUNCTION     0.20     0.51     9.75     0  01:37        0.51
  HS02004770           JUNCTION     0.21     0.46    10.29     0  01:37        0.46
  HS02004777           JUNCTION     0.23     0.48    10.28     0  01:37        0.48
  HS02004785           JUNCTION     0.12     0.32    10.22     0  01:37        0.32
  HS02004788           JUNCTION     0.08     0.22    10.12     0  01:37        0.22
  HS02004792           JUNCTION     0.11     0.32     9.84     0  01:37        0.32
  HS02004799           JUNCTION     0.26     0.61     9.82     0  01:37        0.61
  HS02004802           JUNCTION     0.25     0.52     9.65     0  01:38        0.52
  HS02004807           JUNCTION     0.22     0.50     9.67     0  01:38        0.50
  HS02004817           JUNCTION     0.51     0.83     9.68     0  01:38        0.83
  HS02004824           JUNCTION     0.08     0.26     9.67     0  01:38        0.26
  HS02004830           JUNCTION     0.08     0.21     9.68     0  01:38        0.21
  HS02004837           JUNCTION     0.05     0.12     9.70     0  01:38        0.12
  HS02004842           JUNCTION     0.34     0.43     9.70     0  01:38        0.43
  HS02004848           JUNCTION     0.04     0.10     9.70     0  01:38        0.10
  HS02004852           JUNCTION     0.04     0.11     9.63     0  01:38        0.11
  HS02004856           JUNCTION     0.10     0.19     9.61     0  01:37        0.19
  HS02004862           JUNCTION     0.06     0.15     9.54     0  01:38        0.15
  HS02004870           JUNCTION     0.05     0.13     9.42     0  01:37        0.13
  HS02004876           JUNCTION     0.09     0.21     9.24     0  01:37        0.21
  HS02004881           JUNCTION     0.03     0.09     9.12     0  01:19        0.07
  HS02004901           JUNCTION     0.21     0.47    10.29     0  01:37        0.47
  WS02001211           JUNCTION     0.63     0.74     5.58     0  01:30        0.74
  WS02001212           JUNCTION     0.37     0.50     5.56     0  01:31        0.50
  WS02001213           JUNCTION     0.59     0.80     5.56     0  01:29        0.79
  WS02003059           JUNCTION     0.66     0.86     5.55     0  01:30        0.86
  WS02003060           JUNCTION     0.38     0.60     5.54     0  01:41        0.60
  WS02003066           JUNCTION     0.23     0.40     5.95     0  01:38        0.40
  WS02003067           JUNCTION     0.55     0.84     6.16     0  01:40        0.84
  WS02003069           JUNCTION     0.43     0.69     5.27     0  01:42        0.69
  WS02003072           JUNCTION     0.49     0.73     5.10     0  01:42        0.73
  WS02003073           JUNCTION     0.29     0.46     4.52     0  01:43        0.46
  WS02004138           JUNCTION     0.13     0.14     7.39     0  00:32        0.14
  WS02004139           JUNCTION     0.57     0.67     5.58     0  01:41        0.67
  WS02004401           JUNCTION     0.76     1.69     7.69     0  01:22        1.43
  WS02004402           JUNCTION     0.78     1.63     7.59     0  01:22        1.40
  WS02004403           JUNCTION     0.78     1.60     7.53     0  01:22        1.39
  WS02004404           JUNCTION     0.85     1.63     7.48     0  01:22        1.43
  WS02004405           JUNCTION     0.83     1.58     7.43     0  01:22        1.39
  WS02004406           JUNCTION     0.82     1.86     7.69     0  01:21        1.28
  WS02004407           JUNCTION     0.23     0.47     6.78     0  01:38        0.47
  WS02004409           JUNCTION     0.53     1.06     6.83     0  01:38        1.06
  WS02004410           JUNCTION     0.54     1.02     6.74     0  01:38        1.02
  WS02004411           JUNCTION     0.55     0.99     6.67     0  01:38        0.99
  WS02004412           JUNCTION     0.55     0.95     6.59     0  01:38        0.95
  WS02004413           JUNCTION     0.69     1.05     6.52     0  01:38        1.05
  WS02006109           JUNCTION     0.95     2.16     8.78     0  01:22        2.10
  WS02006110           JUNCTION     0.88     2.22     8.80     0  01:22        1.89
  WS02006111           JUNCTION     0.41     1.75     8.46     0  01:22        1.20
  WS02006112           JUNCTION     0.98     2.32     8.20     0  01:22        1.80
  WS02006113           JUNCTION     0.46     1.82     8.72     0  01:22        1.31
  WS02006115           JUNCTION     0.69     1.86     8.00     0  01:22        1.45
  WS02006116           JUNCTION     0.76     1.81     7.85     0  01:22        1.48
  WS02006228           JUNCTION     1.00     2.22     8.87     0  01:38        2.22
  WS02006229           JUNCTION     1.01     2.22     8.91     0  01:39        2.21
  WS02006230           JUNCTION     0.98     2.65     9.39     0  01:19        2.65
  WS02006231           JUNCTION     0.71     2.24     9.36     0  01:19        2.24
  WS02006232           JUNCTION     0.82     2.18     9.22     0  01:19        2.18
  WS02006234           JUNCTION     0.71     1.96     9.12     0  01:18        1.96
  WS02006235           JUNCTION     0.73     2.00     9.16     0  01:18        2.00
  WS02006238           JUNCTION     0.76     2.15     9.29     0  01:42        2.15
  WS02006239           JUNCTION     0.71     2.03     9.24     0  01:18        2.03
  WS02006240           JUNCTION     0.66     2.10     9.39     0  02:35        2.10
  WS02006242           JUNCTION     0.71     1.55     8.82     0  01:18        1.55
  WS02006243           JUNCTION     0.61     1.48     8.90     0  01:18        1.48
  WS02006245           JUNCTION     0.59     1.56     9.04     0  01:18        1.56
  WS02006247           JUNCTION     0.60     1.47     8.97     0  01:18        1.47
  WS02006248           JUNCTION     0.55     1.10     8.69     0  01:19        1.10
  WS02006249           JUNCTION     0.57     1.09     8.69     0  01:19        1.09
  WS02006251           JUNCTION     0.61     1.51     9.18     0  01:19        1.27
  WS02006252           JUNCTION     0.40     1.50     9.74     0  00:00        0.83
  WS02006253           JUNCTION     0.64     2.25     9.89     0  01:19        1.42
  WS02006256           JUNCTION     0.99     2.35     9.28     0  00:00        2.35
  WS02006280           JUNCTION     0.16     0.53     8.80     0  01:39        0.52
  WS02006284           JUNCTION     0.46     0.77     9.17     0  01:38        0.77
  WS02006287           JUNCTION     0.21     0.52     9.47     0  01:38        0.52
  WSF200               JUNCTION     0.23     0.45     5.68     0  01:41        0.45
  YS02001580           JUNCTION     0.15     1.05     9.59     0  01:20        0.72
  YS02001583           JUNCTION     0.18     1.07     9.56     0  01:20        0.77
  YS02001586           JUNCTION     0.30     1.13     9.30     0  01:20        1.09
  YS02001590           JUNCTION     0.42     1.38     9.24     0  01:20        1.33
  YS02001593           JUNCTION     0.36     1.30     9.16     0  01:20        1.26
  YS02001596           JUNCTION     0.50     1.66     9.08     0  01:20        1.63
  YS02001600           JUNCTION     0.62     1.87     9.00     0  01:41        1.87
  YS02001601           JUNCTION     0.81     2.06     8.90     0  01:19        2.06
  YS02001602           JUNCTION     0.69     1.87     8.77     0  01:38        1.87
  YS02001605           JUNCTION     0.62     1.73     8.64     0  01:41        1.73
  YS02001607           JUNCTION     0.55     1.51     8.36     0  01:38        1.51
  YS02001610           JUNCTION     0.59     1.53     8.33     0  01:38        1.53
  YS02001613           JUNCTION     0.54     1.49     8.33     0  01:41        1.49
  YS02001616           JUNCTION     0.48     1.39     8.30     0  01:35        1.38
  YS02001619           JUNCTION     0.45     1.36     8.29     0  01:38        1.36
  YS02001622           JUNCTION     0.44     1.35     8.25     0  01:38        1.35
  YS02001625           JUNCTION     0.68     1.57     8.17     0  01:38        1.56
  YS02001629           JUNCTION     0.58     1.56     8.11     0  01:38        1.55
  YS02001633           JUNCTION     0.64     1.56     8.02     0  01:36        1.55
  YS02001641           JUNCTION     0.58     1.31     7.74     0  01:38        1.31
  YS02001644           JUNCTION     0.56     1.21     7.64     0  01:38        1.20
  YS02001647           JUNCTION     0.31     0.85     7.46     0  01:36        0.85
  YS02001649           JUNCTION     0.35     0.96     7.35     0  01:35        0.95
  YS02001652           JUNCTION     0.22     0.76     7.36     0  01:37        0.74
  YS02001655           JUNCTION     0.13     0.50     7.35     0  01:36        0.49
  YS02001658           JUNCTION     0.09     0.24     7.38     0  01:33        0.24
  YS02001661           JUNCTION     0.14     0.30     7.70     0  01:33        0.30
  YS02001664           JUNCTION     0.07     0.20     8.13     0  01:33        0.20
  YS02001745           JUNCTION     0.06     0.18     7.70     0  01:32        0.18
  YS02001748           JUNCTION     0.07     0.21     7.29     0  01:31        0.21
  YS02001751           JUNCTION     0.08     0.32     7.20     0  01:37        0.29
  YS02001754           JUNCTION     0.15     0.65     7.26     0  01:44        0.65
  YS02001757           JUNCTION     0.35     0.94     7.20     0  01:35        0.92
  YS02001759           JUNCTION     0.28     0.84     7.21     0  01:36        0.83
  YS02001762           JUNCTION     0.27     0.81     7.21     0  01:35        0.81
  YS02001765           JUNCTION     0.24     0.77     7.22     0  01:35        0.77
  YS02001767           JUNCTION     0.24     0.74     7.23     0  01:35        0.74
  YS02001770           JUNCTION     0.25     0.77     7.26     0  01:33        0.74
  YS02001774           JUNCTION     0.31     0.85     7.27     0  01:34        0.82
  YS02001779           JUNCTION     0.14     0.59     7.27     0  01:34        0.58
  YS02001783           JUNCTION     0.34     1.20     7.34     0  01:38        1.20
  YS02001784           JUNCTION     0.35     1.10     7.17     0  01:41        1.10
  YS02001786           JUNCTION     0.29     0.85     6.88     0  01:37        0.85
  YS02001788           JUNCTION     0.22     0.61     6.58     0  01:38        0.61
  YS02001790           JUNCTION     0.26     0.71     6.35     0  01:38        0.70
  YS02001791           JUNCTION     0.16     0.42     5.89     0  01:38        0.41
  YS02001793           JUNCTION     0.09     0.25     5.08     0  01:38        0.24
  YS02001882           JUNCTION     0.40     1.52     8.24     0  01:36        1.51
  YS02001884           JUNCTION     0.48     1.62     8.24     0  01:37        1.62
  YS02001887           JUNCTION     0.56     1.70     8.24     0  01:37        1.69
  YS02001890           JUNCTION     0.59     1.73     8.24     0  01:36        1.73
  YS02001895           JUNCTION     0.37     1.51     8.25     0  01:38        1.51
  YS02001898           JUNCTION     0.38     1.50     8.23     0  01:36        1.49
  YS02001901           JUNCTION     0.49     1.64     8.25     0  01:38        1.64
  YS02001904           JUNCTION     0.47     1.59     8.22     0  01:37        1.59
  YS02001907           JUNCTION     0.77     1.96     8.24     0  01:38        1.96
  YS02001910           JUNCTION     0.58     1.74     8.25     0  01:37        1.74
  YS02001915           JUNCTION     0.40     1.55     8.27     0  01:38        1.55
  YS02001918           JUNCTION     0.21     1.19     8.26     0  01:38        1.18
  YS02001920           JUNCTION     0.29     1.25     8.26     0  01:37        1.25
  YS02001923           JUNCTION     0.15     1.00     8.26     0  01:37        1.00
  YS02001926           JUNCTION     0.18     0.81     8.26     0  01:37        0.81
  YS02001929           JUNCTION     0.09     0.57     8.26     0  01:37        0.56
  YS02006553           JUNCTION     0.78     1.92     8.20     0  01:38        1.91
  YS02006556           JUNCTION     0.75     1.86     8.17     0  01:36        1.85
  YS02006558           JUNCTION     0.79     1.89     8.16     0  01:37        1.89
  YS02006561           JUNCTION     0.20     0.83     7.49     0  01:36        0.83
  YS02163301           JUNCTION     0.60     1.55     8.07     0  01:41        1.55
  YS02163601           JUNCTION     0.65     1.49     7.88     0  01:38        1.49
  YS02164001           JUNCTION     0.57     1.36     7.82     0  01:38        1.36
  YSB1154              JUNCTION     0.36     0.70     9.76     0  01:37        0.70
  YSB1171              JUNCTION     0.50     0.85     9.76     0  01:37        0.85
  YSB1174              JUNCTION     0.31     0.65     9.76     0  01:37        0.65
  YSB6556              JUNCTION     0.26     0.59     9.76     0  01:37        0.59
  CC-1                 OUTFALL      0.00     0.00     0.00     0  00:00        0.00
  CC-2                 OUTFALL      0.00     0.00     0.00     0  00:00        0.00
  JK-1                 OUTFALL      0.00     0.00     0.00     0  00:00        0.00
  JK-2                 OUTFALL      0.00     0.00     0.00     0  00:00        0.00
  WSC                  OUTFALL      0.29     0.46     1.13     0  01:43        0.46
  CC-storage           STORAGE      0.24     0.80     6.30     0  00:00        0.76
  JK-storage           STORAGE      0.05     2.99     3.79     0  00:00        0.68
  XR-storage           STORAGE      7.76     9.26     7.26     0  08:00        9.26
  
  
  *******************
  Node Inflow Summary
  *******************
  
  -------------------------------------------------------------------------------------------------
                                  Maximum  Maximum                  Lateral       Total        Flow
                                  Lateral    Total  Time of Max      Inflow      Inflow     Balance
                                   Inflow   Inflow   Occurrence      Volume      Volume       Error
  Node                 Type           LPS      LPS  days hr:min    10^6 ltr    10^6 ltr     Percent
  -------------------------------------------------------------------------------------------------
  HS02004478           JUNCTION      0.00  1144.36     0  01:38           0        5.51       0.006
  HS02004479           JUNCTION      0.00   129.86     0  01:35           0       0.559       0.133
  HS02004480           JUNCTION      0.00   858.82     0  01:37           0        3.98       0.016
  HS02004770           JUNCTION    236.97   293.31     0  01:36        1.09        1.34       0.228
  HS02004777           JUNCTION      0.03   292.99     0  01:36    0.000864        1.34       0.391
  HS02004785           JUNCTION      0.15   293.04     0  01:37     0.00432        1.34       0.037
  HS02004788           JUNCTION     92.22   384.98     0  01:37       0.461         1.8       0.021
  HS02004792           JUNCTION    284.38   669.01     0  01:37        1.38        3.18       0.012
  HS02004799           JUNCTION     62.29   730.13     0  01:37       0.261        3.44       0.103
  HS02004802           JUNCTION      0.00   287.56     0  01:39           0        1.54       0.253
  HS02004807           JUNCTION     77.23   287.02     0  01:39       0.321        1.54       0.291
  HS02004817           JUNCTION      0.60   214.78     0  01:41      0.0173        1.24       1.369
  HS02004824           JUNCTION    110.63   212.88     0  01:40       0.561        1.22       0.045
  HS02004830           JUNCTION      0.15   102.00     0  01:38     0.00432       0.658       0.188
  HS02004837           JUNCTION     78.02   101.88     0  01:37       0.487       0.668       0.122
  HS02004842           JUNCTION      0.00    29.05     0  01:54           0       0.194       7.187
  HS02004848           JUNCTION     93.45    93.45     0  01:40        0.49        0.49       0.010
  HS02004852           JUNCTION      0.00    67.87     0  01:38           0        0.31       0.018
  HS02004856           JUNCTION     31.56    98.64     0  01:37       0.132       0.441       0.329
  HS02004862           JUNCTION     41.75   140.35     0  01:38       0.213       0.653       0.026
  HS02004870           JUNCTION     42.05   181.34     0  01:37       0.175       0.828       0.013
  HS02004876           JUNCTION     41.93   222.94     0  01:37        0.18        1.01       0.054
  HS02004881           JUNCTION     22.46   244.80     0  01:37      0.0925         1.1       0.031
  HS02004901           JUNCTION     56.60    56.60     0  01:35       0.249       0.249       0.710
  WS02001211           JUNCTION      7.35   223.22     0  01:28       0.212        5.44       0.611
  WS02001212           JUNCTION      0.00   214.24     0  01:31           0        5.41       0.273
  WS02001213           JUNCTION      0.00   221.40     0  01:31           0         5.4       0.346
  WS02003059           JUNCTION      0.00   254.94     0  01:24           0        5.39       0.596
  WS02003060           JUNCTION     16.53  1233.12     0  01:41       0.476        13.6       0.107
  WS02003066           JUNCTION      0.00  1020.43     0  01:38           0        7.78       0.020
  WS02003067           JUNCTION      0.00  1020.25     0  01:38           0        7.78       0.055
  WS02003069           JUNCTION      0.32  1232.61     0  01:41     0.00922        13.6       0.114
  WS02003072           JUNCTION      0.00  1232.26     0  01:42           0        13.6       0.154
  WS02003073           JUNCTION      1.82  1233.88     0  01:43      0.0524        13.6       0.158
  WS02004138           JUNCTION      0.00   380.00     0  00:00           0        5.25       0.053
  WS02004139           JUNCTION      0.32   190.32     0  00:32     0.00924        5.26       0.508
  WS02004401           JUNCTION      0.00  1025.40     0  01:38           0        7.89       0.137
  WS02004402           JUNCTION      0.00  1024.94     0  01:38           0        7.88       0.137
  WS02004403           JUNCTION      0.00  1025.22     0  01:38           0        7.87       0.131
  WS02004404           JUNCTION      0.16  1024.91     0  01:38     0.00467        7.86       0.119
  WS02004405           JUNCTION      0.04  1024.33     0  01:38      0.0011        7.85       0.159
  WS02004406           JUNCTION      0.00  1024.78     0  01:38           0        7.84       0.275
  WS02004407           JUNCTION      0.00  1026.28     0  01:38           0        7.82       0.017
  WS02004409           JUNCTION      0.00  1026.22     0  01:23           0        7.82       0.041
  WS02004410           JUNCTION      0.00  1020.28     0  01:38           0        7.82       0.062
  WS02004411           JUNCTION      0.00  1020.38     0  01:38           0        7.81       0.077
  WS02004412           JUNCTION      0.00  1020.20     0  01:38           0         7.8       0.101
  WS02004413           JUNCTION      0.00  1020.22     0  01:38           0         7.8       0.183
  WS02006109           JUNCTION      1.23  1025.33     0  01:20      0.0354        7.73       0.101
  WS02006110           JUNCTION      0.00  1025.11     0  01:20           0        7.72       0.099
  WS02006111           JUNCTION      0.00  1039.52     0  01:20           0        7.71       0.015
  WS02006112           JUNCTION     46.52  1037.02     0  01:20       0.205        7.92       0.264
  WS02006113           JUNCTION      0.00  1025.44     0  01:20           0        7.71       0.026
  WS02006115           JUNCTION      0.00  1036.98     0  01:20           0         7.9       0.096
  WS02006116           JUNCTION      0.00  1026.12     0  01:38           0        7.89      -0.018
  WS02006228           JUNCTION      0.00  1024.17     0  01:20           0         7.7       0.027
  WS02006229           JUNCTION      0.00  1174.25     0  01:40           0        7.96       0.110
  WS02006230           JUNCTION     10.28   437.99     0  03:09       0.296        2.74       0.296
  WS02006231           JUNCTION      0.00   422.94     0  03:09           0        2.44      -0.143
  WS02006232           JUNCTION      0.00   419.56     0  03:08           0        2.43       0.285
  WS02006234           JUNCTION      0.00   416.35     0  03:08           0        2.41      -0.314
  WS02006235           JUNCTION      0.00   443.62     0  03:22           0        2.54       0.374
  WS02006238           JUNCTION      0.00   396.79     0  00:21           0        2.32      -0.239
  WS02006239           JUNCTION      0.00   396.58     0  00:21           0        2.25      -0.350
  WS02006240           JUNCTION      0.00   402.46     0  01:18           0        2.23      -0.142
  WS02006242           JUNCTION      0.00   446.19     0  01:18           0        2.24      -0.043
  WS02006243           JUNCTION      0.00   477.07     0  01:18           0        2.21      -0.094
  WS02006245           JUNCTION      0.00   495.32     0  01:18           0        2.22       0.745
  WS02006247           JUNCTION      0.00   500.27     0  01:18           0        2.22       0.000
  WS02006248           JUNCTION      0.00   518.09     0  01:17           0        2.41      -0.013
  WS02006249           JUNCTION      0.00   652.31     0  01:19           0        4.57       0.263
  WS02006251           JUNCTION      0.08   651.18     0  01:36     0.00222        4.62      -0.034
  WS02006252           JUNCTION      0.00   400.00     0  00:00           0        3.45      -0.054
  WS02006253           JUNCTION      5.56   250.07     0  01:37      0.0225        1.17       0.172
  WS02006256           JUNCTION      0.00   300.00     0  00:00           0       0.799      -1.172
  WS02006280           JUNCTION      0.00  1144.60     0  01:38           0         5.5       0.008
  WS02006284           JUNCTION      0.10  1144.55     0  01:38     0.00275         5.5       0.020
  WS02006287           JUNCTION      0.00  1144.40     0  01:38           0         5.5       0.019
  WSF200               JUNCTION      0.00  1020.58     0  01:39           0        7.78       0.007
  YS02001580           JUNCTION      0.00    66.93     0  01:20           0     0.00416       0.693
  YS02001583           JUNCTION      0.00   102.88     0  01:19           0      0.0159      -3.256
  YS02001586           JUNCTION    301.65   302.62     0  01:38        1.55        1.56       0.081
  YS02001590           JUNCTION      0.00   302.33     0  01:38           0        1.55      -0.034
  YS02001593           JUNCTION      0.00   302.21     0  01:38           0        1.55       0.010
  YS02001596           JUNCTION      0.00   302.21     0  01:38           0        1.55       0.005
  YS02001600           JUNCTION      0.00   302.35     0  01:38           0        1.55       0.019
  YS02001601           JUNCTION    488.39   786.48     0  01:35        2.15        3.69       0.023
  YS02001602           JUNCTION      0.00   514.71     0  01:19           0        3.04       0.019
  YS02001605           JUNCTION      0.00   514.32     0  01:19           0        3.04       0.023
  YS02001607           JUNCTION      0.00   513.81     0  01:19           0        3.04       0.061
  YS02001610           JUNCTION      0.00   518.37     0  01:19           0        3.04       0.089
  YS02001613           JUNCTION      0.00   520.07     0  01:19           0        3.04       0.060
  YS02001616           JUNCTION      0.00   515.42     0  01:19           0        3.05       0.017
  YS02001619           JUNCTION    513.29   935.63     0  01:41        2.47        5.52      -0.002
  YS02001622           JUNCTION      0.00   936.11     0  01:41           0        5.51       0.001
  YS02001625           JUNCTION      0.00   936.81     0  01:41           0        5.51       0.193
  YS02001629           JUNCTION      0.00   937.13     0  01:41           0         5.5       0.006
  YS02001633           JUNCTION    362.64  1292.95     0  01:35        1.57        7.07       0.049
  YS02001641           JUNCTION      0.00  1293.21     0  01:35           0        7.07       0.041
  YS02001644           JUNCTION    317.10  1607.96     0  01:35        1.36        8.42       0.040
  YS02001647           JUNCTION      0.00  1608.01     0  01:34           0         8.4       0.006
  YS02001649           JUNCTION      0.00  1915.95     0  01:35           0        9.64       0.002
  YS02001652           JUNCTION      0.00   335.66     0  01:38           0        1.23      -0.145
  YS02001655           JUNCTION      0.15   289.45     0  01:33     0.00443        1.23       0.114
  YS02001658           JUNCTION      0.00   289.34     0  01:33           0        1.23      -0.003
  YS02001661           JUNCTION      0.00   289.30     0  01:33           0        1.23       0.033
  YS02001664           JUNCTION    289.31   289.31     0  01:33        1.23        1.23      -0.013
  YS02001745           JUNCTION    180.15   180.15     0  01:32       0.749       0.749      -0.004
  YS02001748           JUNCTION      0.04   180.18     0  01:32      0.0013       0.751      -0.006
  YS02001751           JUNCTION      0.01   184.22     0  01:34    0.000317       0.751       0.100
  YS02001754           JUNCTION      0.26   328.11     0  01:45     0.00749       0.762      -0.101
  YS02001757           JUNCTION      0.00  2831.94     0  01:35           0          13       0.008
  YS02001759           JUNCTION    248.89   663.01     0  01:37        1.03        2.63      -0.011
  YS02001762           JUNCTION      0.00   403.73     0  01:35           0         1.6       0.012
  YS02001765           JUNCTION      0.00   409.83     0  01:36           0         1.6       0.013
  YS02001767           JUNCTION      0.54   423.06     0  01:34      0.0154         1.6       0.020
  YS02001770           JUNCTION    374.28   406.34     0  01:36        1.58        1.62      -0.020
  YS02001774           JUNCTION      0.00    57.48     0  01:34           0       0.059       2.182
  YS02001779           JUNCTION      0.01    49.40     0  01:33    0.000144       0.023       0.088
  YS02001783           JUNCTION      0.00  1124.48     0  01:38           0        4.98       0.005
  YS02001784           JUNCTION      1.06  1125.84     0  01:37      0.0305        5.01       0.011
  YS02001786           JUNCTION      0.06  1125.52     0  01:37     0.00162        5.01       0.015
  YS02001788           JUNCTION      0.07  1125.62     0  01:37     0.00204        5.01       0.007
  YS02001790           JUNCTION      0.15  1135.54     0  01:37     0.00446        5.01       0.004
  YS02001791           JUNCTION      0.00  1250.71     0  01:38           0        5.01       0.003
  YS02001793           JUNCTION      0.00  1195.94     0  01:37           0        5.01      -0.065
  YS02001882           JUNCTION      0.00    38.99     0  01:19           0      0.0147       5.181
  YS02001884           JUNCTION      0.00    78.89     0  01:13           0      0.0515       5.187
  YS02001887           JUNCTION    258.12   262.32     0  01:25        1.09        1.12       0.382
  YS02001890           JUNCTION      0.00   262.42     0  01:25           0        1.08       0.486
  YS02001895           JUNCTION      0.00   262.82     0  01:25           0        1.07       0.223
  YS02001898           JUNCTION      0.00   266.38     0  01:25           0        1.07      -0.020
  YS02001901           JUNCTION      0.00   261.57     0  01:28           0        1.07       0.325
  YS02001904           JUNCTION      0.00   261.81     0  01:28           0        1.08       0.267
  YS02001907           JUNCTION      0.00   770.75     0  01:41           0        3.46       0.527
  YS02001910           JUNCTION      0.00   549.25     0  01:42           0        2.38       0.301
  YS02001915           JUNCTION    349.89   549.54     0  01:42         1.5        2.38       0.067
  YS02001918           JUNCTION      0.00   230.75     0  01:42           0       0.876       0.034
  YS02001920           JUNCTION      2.87   230.21     0  01:42      0.0827       0.877       0.113
  YS02001923           JUNCTION      0.04   207.74     0  01:42     0.00109       0.794      -0.006
  YS02001926           JUNCTION      0.05   185.32     0  01:41      0.0015       0.793       0.046
  YS02001929           JUNCTION    178.70   178.70     0  01:35       0.792       0.792      -0.010
  YS02006553           JUNCTION      0.00   771.29     0  01:41           0        3.46       0.345
  YS02006556           JUNCTION      0.00   770.87     0  01:41           0        3.47       0.241
  YS02006558           JUNCTION    373.97  1125.11     0  01:37        1.58        5.02       0.066
  YS02006561           JUNCTION      0.00  1124.95     0  01:38           0        4.98      -0.000
  YS02163301           JUNCTION      0.00   936.39     0  01:41           0        5.51       0.030
  YS02163601           JUNCTION      0.11  1292.73     0  01:35     0.00317        7.06       0.073
  YS02164001           JUNCTION      0.00  1292.66     0  01:35           0        7.06       0.038
  YSB1154              JUNCTION     73.42    73.42     0  01:35       0.314       0.314       0.457
  YSB1171              JUNCTION      0.00   130.08     0  01:34           0       0.557       1.153
  YSB1174              JUNCTION     57.86    57.86     0  01:33       0.235       0.236       0.544
  YSB6556              JUNCTION      0.00    73.30     0  01:35           0       0.315       0.405
  CC-1                 OUTFALL       0.00   683.00     0  00:00           0        5.89       0.000
  CC-2                 OUTFALL       0.00   683.00     0  00:00           0        5.89       0.000
  JK-1                 OUTFALL       0.00  1000.00     0  00:00           0        2.58       0.000
  JK-2                 OUTFALL       0.00  1000.00     0  00:00           0        2.58       0.000
  WSC                  OUTFALL       0.00  1233.60     0  01:43           0        13.6       0.000
  CC-storage           STORAGE       0.00  2743.91     0  01:37           0        15.3      -0.284
  JK-storage           STORAGE       0.00  1272.01     0  01:35           0        5.17     -13.213
  XR-storage           STORAGE     200.00   200.00     0  00:00        5.76        6.36       0.001
  
  
  **********************
  Node Surcharge Summary
  **********************
  
  Surcharging occurs when water rises above the top of the highest conduit.
  ---------------------------------------------------------------------
                                               Max. Height   Min. Depth
                                   Hours       Above Crown    Below Rim
  Node                 Type      Surcharged         Meters       Meters
  ---------------------------------------------------------------------
  HS02004817           JUNCTION        0.95          0.127        1.613
  WS02004401           JUNCTION        1.77          0.687        0.973
  WS02004402           JUNCTION        1.80          0.626        1.114
  WS02004403           JUNCTION        1.81          0.603        1.427
  WS02004404           JUNCTION        1.86          0.633        2.147
  WS02004405           JUNCTION        1.85          0.577        2.223
  WS02004406           JUNCTION        1.84          0.861        1.589
  WS02004409           JUNCTION        0.56          0.061        2.299
  WS02004410           JUNCTION        0.27          0.023        2.517
  WS02004413           JUNCTION        1.14          0.053        2.147
  WS02006109           JUNCTION        2.07          1.337        0.483
  WS02006110           JUNCTION        1.89          1.305        0.545
  WS02006111           JUNCTION        0.99          0.944        0.926
  WS02006112           JUNCTION        1.94          1.318        0.362
  WS02006113           JUNCTION        1.04          1.025        0.905
  WS02006115           JUNCTION        1.55          0.854        1.396
  WS02006116           JUNCTION        1.66          0.745        1.545
  WS02006228           JUNCTION        2.05          1.390        0.810
  WS02006229           JUNCTION        0.04          0.036        1.034
  WS02006230           JUNCTION        1.85          1.570        0.000
  WS02006231           JUNCTION        1.86          1.530        0.000
  WS02006232           JUNCTION        2.08          1.480        0.000
  WS02006234           JUNCTION        1.87          1.240        0.000
  WS02006235           JUNCTION        1.96          1.290        0.000
  WS02006238           JUNCTION        2.01          1.430        0.000
  WS02006239           JUNCTION        1.96          1.290        0.000
  WS02006240           JUNCTION        1.96          1.390        0.000
  WS02006242           JUNCTION        2.08          0.820        0.000
  WS02006243           JUNCTION        1.98          0.770        0.000
  WS02006245           JUNCTION        1.97          0.850        0.000
  WS02006247           JUNCTION        2.00          0.760        0.000
  WS02006248           JUNCTION        1.96          0.380        0.000
  WS02006249           JUNCTION        2.00          0.390        0.000
  WS02006251           JUNCTION        1.83          0.477        0.703
  WS02006252           JUNCTION        2.39          1.100        0.000
  WS02006253           JUNCTION        1.83          1.206        1.274
  WS02006256           JUNCTION        6.38          2.050        0.000
  YS02001580           JUNCTION        0.63          0.450        0.000
  YS02001583           JUNCTION        0.65          0.426        0.074
  YS02001586           JUNCTION        0.93          0.510        0.000
  YS02001590           JUNCTION        1.04          0.725        0.025
  YS02001593           JUNCTION        1.05          0.677        0.163
  YS02001596           JUNCTION        1.27          0.929        0.141
  YS02001600           JUNCTION        1.48          1.190        0.000
  YS02001601           JUNCTION        1.96          1.440        0.000
  YS02001602           JUNCTION        1.89          1.270        0.000
  YS02001605           JUNCTION        1.85          1.133        0.047
  YS02001607           JUNCTION        0.95          0.514        0.166
  YS02001610           JUNCTION        0.99          0.532        0.148
  YS02001613           JUNCTION        0.93          0.485        0.215
  YS02001616           JUNCTION        0.86          0.385        0.225
  YS02001619           JUNCTION        0.84          0.362        0.248
  YS02001622           JUNCTION        0.82          0.347        0.273
  YS02001625           JUNCTION        1.16          0.569        0.211
  YS02001629           JUNCTION        0.57          0.177        0.293
  YS02001633           JUNCTION        1.18          0.542        0.518
  YS02001641           JUNCTION        0.96          0.305        0.795
  YS02001644           JUNCTION        0.86          0.212        0.708
  YS02001783           JUNCTION        0.63          0.397        1.203
  YS02001784           JUNCTION        0.57          0.300        1.190
  YS02001786           JUNCTION        0.23          0.046        1.384
  YS02001882           JUNCTION        0.45          0.523        0.307
  YS02001884           JUNCTION        0.50          0.562        0.308
  YS02001887           JUNCTION        0.60          0.652        0.298
  YS02001890           JUNCTION        0.63          0.685        0.075
  YS02001895           JUNCTION        0.42          0.507        0.243
  YS02001898           JUNCTION        0.39          0.465        0.275
  YS02001901           JUNCTION        0.56          0.636        0.234
  YS02001904           JUNCTION        0.54          0.595        0.255
  YS02001907           JUNCTION        1.01          0.945        0.005
  YS02001910           JUNCTION        0.69          0.738        0.362
  YS02001915           JUNCTION        0.46          0.551        0.449
  YS02001918           JUNCTION        0.18          0.190        0.620
  YS02001920           JUNCTION        0.22          0.253        0.887
  YS02006553           JUNCTION        1.04          0.919        0.271
  YS02006556           JUNCTION        0.84          0.819        0.531
  YS02006558           JUNCTION        0.83          0.791        0.609
  YS02006561           JUNCTION        0.09          0.030        1.120
  YS02163301           JUNCTION        1.13          0.553        0.477
  YS02163601           JUNCTION        1.23          0.486        0.594
  YS02164001           JUNCTION        0.99          0.360        0.740
  YSB1154              JUNCTION        0.04          0.001        1.399
  YSB1171              JUNCTION        0.07          0.002        1.098
  
  
  *********************
  Node Flooding Summary
  *********************
  
  Flooding refers to all water that overflows a node, whether it ponds or not.
  --------------------------------------------------------------------------
                                                             Total   Maximum
                                 Maximum   Time of Max       Flood    Ponded
                        Hours       Rate    Occurrence      Volume     Depth
  Node                 Flooded       LPS   days hr:min    10^6 ltr    Meters
  --------------------------------------------------------------------------
  WS02006230              0.01    286.51      0  01:19       0.000     0.000
  WS02006231              0.01     29.82      0  01:19       0.000     0.000
  WS02006232              0.01     38.35      0  01:19       0.000     0.000
  WS02006234              0.09     23.21      0  01:38       0.003     0.000
  WS02006235              0.07     46.18      0  02:10       0.003     0.000
  WS02006238              0.01     23.29      0  02:41       0.000     0.000
  WS02006239              0.01      8.30      0  02:10       0.000     0.000
  WS02006240              0.01     10.29      0  03:03       0.000     0.000
  WS02006242              0.53     98.39      0  01:19       0.036     0.000
  WS02006243              0.01     79.09      0  01:41       0.001     0.000
  WS02006245              0.01     73.22      0  01:18       0.000     0.000
  WS02006247              0.01     41.25      0  01:18       0.000     0.000
  WS02006248              1.27    256.48      0  01:40       0.453     0.000
  WS02006249              1.83    589.90      0  01:38       2.409     0.000
  WS02006252              0.01    245.63      0  00:00       0.001     0.000
  WS02006256              0.74    297.94      0  02:16       0.541     0.000
  YS02001580              0.01     22.55      0  01:20       0.000     0.000
  YS02001586              0.01     42.13      0  01:20       0.000     0.000
  YS02001600              0.01      0.25      0  01:41       0.000     0.000
  YS02001601              0.80    367.80      0  01:35       0.647     0.000
  YS02001602              0.01      0.13      0  01:41       0.000     0.000
  
  
  **********************
  Storage Volume Summary
  **********************
  
  --------------------------------------------------------------------------------------------------
                         Average     Avg  Evap Exfil       Maximum     Max    Time of Max    Maximum
                          Volume    Pcnt  Pcnt  Pcnt        Volume    Pcnt     Occurrence    Outflow
  Storage Unit           1000 m3    Full  Loss  Loss       1000 m3    Full    days hr:min        LPS
  --------------------------------------------------------------------------------------------------
  CC-storage               0.670      10     0     0         2.229      35       0  00:00    1783.53
  JK-storage               0.003       1     0     0         0.150      52       0  00:00    2300.00
  XR-storage               0.931      65     0     0         1.111      77       0  08:00     380.00
  
  
  ***********************
  Outfall Loading Summary
  ***********************
  
  -----------------------------------------------------------
                         Flow       Avg       Max       Total
                         Freq      Flow      Flow      Volume
  Outfall Node           Pcnt       LPS       LPS    10^6 ltr
  -----------------------------------------------------------
  CC-1                  51.13    683.00    683.00       5.885
  CC-2                  51.13    683.00    683.00       5.885
  JK-1                  15.90    991.61   1000.00       2.583
  JK-2                  15.90    991.61   1000.00       2.583
  WSC                   99.95    620.83   1233.60      13.584
  -----------------------------------------------------------
  System                46.81   3970.05   1233.60      30.521
  
  
  ********************
  Link Flow Summary
  ********************
  
  -----------------------------------------------------------------------------
                                 Maximum  Time of Max   Maximum    Max/    Max/
                                  |Flow|   Occurrence   |Veloc|    Full    Full
  Link                 Type          LPS  days hr:min     m/sec    Flow   Depth
  -----------------------------------------------------------------------------
  1                    CONDUIT   1233.60     0  01:43      3.52    0.43    0.46
  HS02004478WS02006287 CONDUIT   1144.40     0  01:38      2.54    0.32    0.50
  HS02004479HS02004480 CONDUIT    129.48     0  01:36      0.47    0.13    0.76
  HS02004480HS02004478 CONDUIT    858.78     0  01:37      1.86    3.62    0.66
  HS02004770HS02004777 CONDUIT    292.96     0  01:36      0.62    0.54    0.67
  HS02004777HS02004785 CONDUIT    292.89     0  01:37      0.73    0.36    0.57
  HS02004785HS02004788 CONDUIT    293.05     0  01:37      1.09    2.21    0.38
  HS02004788HS02004792 CONDUIT    384.93     0  01:37      1.43    0.25    0.38
  HS02004792HS02004799 CONDUIT    669.05     0  01:37      1.44    0.41    0.66
  HS02004799HS02004480 CONDUIT    730.20     0  01:37      1.32    0.92    0.79
  HS02004802HS02004478 CONDUIT    288.28     0  01:40      0.63    0.25    0.66
  HS02004807HS02004802 CONDUIT    287.56     0  01:39      0.57    0.55    0.72
  HS02004817HS02004807 CONDUIT    214.79     0  01:41      0.36    0.13    0.85
  HS02004817HS02004824 CONDUIT    214.18     0  01:41      0.45    0.10    0.69
  HS02004824HS02004830 CONDUIT    102.31     0  01:39      0.64    0.13    0.34
  HS02004830HS02004837 CONDUIT    101.85     0  01:38      0.69    0.10    0.23
  HS02004837HS02004842 CONDUIT     29.58     0  01:57      0.41    0.02    0.39
  HS02004842HS02004848 CONDUIT     29.05     0  01:54      0.11    0.02    0.38
  HS02004848HS02004852 CONDUIT     67.87     0  01:38      0.64    0.08    0.15
  HS02004852HS02004856 CONDUIT     67.95     0  01:38      0.45    0.08    0.21
  HS02004856HS02004862 CONDUIT     98.60     0  01:37      0.74    0.10    0.19
  HS02004862HS02004870 CONDUIT    140.37     0  01:38      0.99    0.15    0.20
  HS02004870HS02004876 CONDUIT    181.31     0  01:37      1.05    0.12    0.25
  HS02004876HS02004881 CONDUIT    222.96     0  01:37      1.56    2.37    0.20
  HS02004881HS02006253 CONDUIT    244.79     0  01:37      2.34    0.05    0.57
  HS02004901HS02004770 CONDUIT     56.43     0  01:36      0.12    0.21    0.67
  WS02001211WS02001212 CONDUIT    214.24     0  01:31      0.54    0.16    0.62
  WS02001212WS02001213 CONDUIT    221.40     0  01:31      1.04    0.34    0.48
  WS02001213WS02003059 CONDUIT    220.13     0  01:30      0.47    0.36    0.81
  WS02003059WS02003060 CONDUIT    223.97     0  03:16      0.65    0.15    0.73
  WS02003060WS02003069 CONDUIT   1232.29     0  01:41      1.99    0.48    0.54
  WS02003066WSF200     CONDUIT   1020.58     0  01:39      3.28    0.17    0.33
  WS02003067WS02003066 CONDUIT   1020.43     0  01:38      1.74    0.33    0.52
  WS02003069WS02003072 CONDUIT   1232.26     0  01:42      1.77    0.59    0.59
  WS02003072WS02003073 CONDUIT   1232.05     0  01:43      1.90    2.66    0.56
  WS02004138WS02004139 CONDUIT    190.00     0  00:32      2.16    0.04    0.38
  WS02004139WS02001211 CONDUIT    215.87     0  01:28      0.54    0.27    0.55
  WS02004401WS02004402 CONDUIT   1024.94     0  01:38      1.30    1.23    1.00
  WS02004402WS02004403 CONDUIT   1025.22     0  01:38      1.31    1.47    1.00
  WS02004403WS02004404 CONDUIT   1024.75     0  01:38      1.30    0.74    1.00
  WS02004404WS02004405 CONDUIT   1024.30     0  01:38      1.44   10.04    1.00
  WS02004405WS02004406 CONDUIT   1024.78     0  01:38      1.43    2.02    1.00
  WS02004406WS02004407 CONDUIT   1026.28     0  01:38      1.70    0.46    0.73
  WS02004407WS02004409 CONDUIT   1026.22     0  01:23      2.06    0.36    0.73
  WS02004409WS02004410 CONDUIT   1020.28     0  01:38      1.51    1.32    1.00
  WS02004410WS02004411 CONDUIT   1020.38     0  01:38      1.45    1.39    0.99
  WS02004411WS02004412 CONDUIT   1020.20     0  01:38      1.41    1.45    0.97
  WS02004412WS02004413 CONDUIT   1020.22     0  01:38      1.31    0.68    0.98
  WS02004413WS02003067 CONDUIT   1020.25     0  01:38      1.66    0.44    0.73
  WS02006109WS02006110 CONDUIT   1025.11     0  01:20      2.04    1.97    1.00
  WS02006110WS02006113 CONDUIT   1025.44     0  01:20      2.14    0.93    1.00
  WS02006111WS02006112 CONDUIT    999.78     0  01:20      2.24    0.48    1.00
  WS02006112WS02006115 CONDUIT   1036.98     0  01:20      1.37    0.61    1.00
  WS02006113WS02006111 CONDUIT   1039.52     0  01:20      2.79    1.25    1.00
  WS02006115WS02006116 CONDUIT   1026.12     0  01:38      1.37    1.32    1.00
  WS02006116WS02004401 CONDUIT   1025.40     0  01:38      1.31    1.41    1.00
  WS02006228WS02006109 CONDUIT   1024.10     0  01:20      2.04    4.47    1.00
  WS02006229WS02006228 CONDUIT   1024.17     0  01:20      2.04    3.39    1.00
  WS02006230WS02006229 CONDUIT    446.74     0  03:09      1.20    9.94    1.00
  WS02006231WS02006230 CONDUIT    427.72     0  03:09      1.38    6.49    1.00
  WS02006232WS02006231 CONDUIT    422.94     0  03:09      1.10    0.89    1.00
  WS02006234WS02006232 CONDUIT    419.56     0  03:08      1.39    0.85    1.00
  WS02006235WS02006234 CONDUIT    416.35     0  03:08      1.21    4.39    1.00
  WS02006238WS02006235 CONDUIT    397.46     0  00:21      1.45    0.89    1.00
  WS02006239WS02006238 CONDUIT    396.79     0  00:21      1.10    1.27    1.00
  WS02006240WS02006239 CONDUIT    396.58     0  00:21      1.25    1.25    1.00
  WS02006242WS02006240 CONDUIT    402.46     0  01:18      1.17    1.60    1.00
  WS02006243WS02006242 CONDUIT    446.19     0  01:18      1.35    0.95    1.00
  WS02006245WS02006243 CONDUIT    477.07     0  01:18      1.44    1.41    1.00
  WS02006247WS02006245 CONDUIT    495.32     0  01:18      1.50    3.93    1.00
  WS02006248WS02006247 CONDUIT    500.27     0  01:18      1.48    1.09    1.00
  WS02006249WS02006248 CONDUIT    518.09     0  01:17      1.48    2.84    1.00
  WS02006251WS02006249 CONDUIT    652.31     0  01:19      1.69    1.88    1.00
  WS02006252WS02006251 CONDUIT    405.79     0  01:19      4.83    1.49    1.00
  WS02006253WS02006251 CONDUIT    347.66     0  00:21      1.19    1.04    1.00
  WS02006256WS02006235 CONDUIT    288.93     0  00:00      4.23    3.06    1.00
  WS02006280WS02006229 CONDUIT   1174.25     0  01:40      4.22    0.25    0.77
  WS02006284WS02006280 CONDUIT   1144.60     0  01:38      3.01    0.48    0.49
  WS02006287WS02006284 CONDUIT   1144.46     0  01:38      2.79    0.53    0.52
  WSF200WS02003060     CONDUIT   1021.08     0  01:38      2.51    0.23    0.44
  YS02001580YS02001583 CONDUIT     66.93     0  01:20      0.53    0.26    1.00
  YS02001583YS02001586 CONDUIT    102.88     0  01:19      0.46    0.16    1.00
  YS02001586YS02001590 CONDUIT    302.33     0  01:38      1.25    0.53    1.00
  YS02001590YS02001593 CONDUIT    302.21     0  01:38      1.07    1.90    1.00
  YS02001593YS02001596 CONDUIT    302.21     0  01:38      1.72    0.48    1.00
  YS02001596YS02001600 CONDUIT    302.35     0  01:38      1.20    0.59    1.00
  YS02001600YS02001601 CONDUIT    302.30     0  01:38      1.07    0.52    1.00
  YS02001601YS02001602 CONDUIT    514.71     0  01:19      1.82    1.86    1.00
  YS02001602YS02001605 CONDUIT    514.32     0  01:19      1.82   10.88    1.00
  YS02001605YS02001607 CONDUIT    513.81     0  01:19      1.82    2.82    1.00
  YS02001607YS02001610 CONDUIT    518.37     0  01:19      0.72    0.49    1.00
  YS02001610YS02001613 CONDUIT    520.07     0  01:19      0.66    0.60    1.00
  YS02001613YS02001616 CONDUIT    515.42     0  01:19      0.71    0.44    1.00
  YS02001616YS02001619 CONDUIT    512.84     0  02:08      0.76    0.89    1.00
  YS02001619YS02001622 CONDUIT    936.11     0  01:41      1.58    1.38    1.00
  YS02001622YS02001625 CONDUIT    936.81     0  01:41      1.19    0.50    1.00
  YS02001625YS02001629 CONDUIT    937.13     0  01:41      1.19    0.45    1.00
  YS02001629YS02163301 CONDUIT    936.39     0  01:41      1.19    1.15    1.00
  YS02001633YS02163601 CONDUIT   1292.62     0  01:35      1.65    1.36    1.00
  YS02001641YS02001644 CONDUIT   1292.62     0  01:35      1.65    4.18    1.00
  YS02001644YS02001647 CONDUIT   1608.01     0  01:34      2.14    0.94    0.92
  YS02001647YS02001649 CONDUIT   1630.34     0  01:36      2.28    0.86    0.90
  YS02001649YS02001757 CONDUIT   1915.84     0  01:36      2.52    1.16    0.95
  YS02001652YS02001649 CONDUIT    309.16     0  01:22      1.19    0.15    0.86
  YS02001655YS02001652 CONDUIT    335.66     0  01:38      1.62    0.16    0.60
  YS02001658YS02001655 CONDUIT    289.30     0  01:33      1.84    0.12    0.37
  YS02001661YS02001658 CONDUIT    289.34     0  01:33      2.09    0.11    0.23
  YS02001664YS02001661 CONDUIT    289.30     0  01:33      1.88    0.09    0.25
  YS02001745YS02001748 CONDUIT    180.14     0  01:32      1.90    0.07    0.18
  YS02001748YS02001751 CONDUIT    184.21     0  01:34      1.58    0.09    0.26
  YS02001751YS02001754 CONDUIT    275.40     0  01:44      1.52    0.13    0.43
  YS02001754YS02001757 CONDUIT    367.34     0  01:44      0.76    0.15    0.78
  YS02001757CaochengTiaoxuchi CONDUIT   2743.91     0  01:37      6.49    1.19    0.73
  YS02001759YS02001757 CONDUIT    650.56     0  01:36      1.10    0.46    0.89
  YS02001762YS02001759 CONDUIT    424.43     0  01:37      0.66    0.49    0.83
  YS02001765YS02001762 CONDUIT    403.73     0  01:35      0.79    0.38    0.79
  YS02001767YS02001765 CONDUIT    409.83     0  01:36      0.89    0.52    0.76
  YS02001770YS02001767 CONDUIT    422.53     0  01:34      0.84    1.67    0.75
  YS02001774YS02001770 CONDUIT     47.82     0  01:07      0.62    0.03    0.79
  YS02001779YS02001774 CONDUIT     49.39     0  01:33      0.17    0.02    0.70
  YS02001783YS02001784 CONDUIT   1124.78     0  01:37      2.24    1.55    1.00
  YS02001784YS02001785 CONDUIT   1125.46     0  01:37      2.24    2.62    1.00
  YS02001786YS02001788 CONDUIT   1125.55     0  01:37      2.41    2.17    0.88
  YS02001788YS02001790 CONDUIT   1135.38     0  01:37      2.66    0.84    0.82
  YS02001790YS02001791 CONDUIT   1250.71     0  01:38      3.40    1.36    0.69
  YS02001791YS02001793 CONDUIT   1195.94     0  01:37      6.39    0.51    0.41
  YS02001793JiankangQianchi CONDUIT   1272.01     0  01:35     22.65    0.10    0.50
  YS02001882YS02001884 CONDUIT     38.99     0  01:19      0.33    0.04    1.00
  YS02001884YS02001887 CONDUIT     78.89     0  01:13      0.27    0.11    1.00
  YS02001887YS02001890 CONDUIT    262.42     0  01:25      0.35    0.45    1.00
  YS02001890YS02001895 CONDUIT    262.82     0  01:25      0.36    0.12    1.00
  YS02001895YS02001898 CONDUIT    266.38     0  01:25      0.62    0.46    1.00
  YS02001898YS02001901 CONDUIT    261.57     0  01:28      0.53    0.17    1.00
  YS02001901YS02001904 CONDUIT    261.81     0  01:28      0.54    0.41    1.00
  YS02001904YS02001907 CONDUIT    261.79     0  01:28      0.33    0.09    1.00
  YS02001907YS02006553 CONDUIT    771.29     0  01:41      0.86    0.91    1.00
  YS02001910YS02001907 CONDUIT    549.74     0  01:42      0.70    0.31    1.00
  YS02001915YS02001910 CONDUIT    549.25     0  01:42      1.01    0.27    1.00
  YS02001918YS02001915 CONDUIT    250.60     0  01:46      0.44    0.14    1.00
  YS02001920YS02001918 CONDUIT    230.75     0  01:42      0.67    0.22    1.00
  YS02001923YS02001920 CONDUIT    227.34     0  01:42      0.74    0.10    1.00
  YS02001926YS02001923 CONDUIT    207.70     0  01:42      0.91    0.30    0.80
  YS02001929YS02001926 CONDUIT    185.26     0  01:41      1.01    0.09    0.69
  YS02006553YS02006556 CONDUIT    770.87     0  01:41      0.98    0.66    1.00
  YS02006556YS02006558 CONDUIT    772.81     0  01:41      0.98    0.61    1.00
  YS02006558YS02006561 CONDUIT   1124.95     0  01:38      3.98    2.49    1.00
  YS02006561YS02001783 CONDUIT   1124.48     0  01:38      2.26    0.58    1.00
  YS02163301YS02001633 CONDUIT    936.70     0  01:38      1.19    0.88    1.00
  YS02163601YS02164001 CONDUIT   1292.66     0  01:35      1.65    1.15    1.00
  YS02164001YS02001641 CONDUIT   1293.21     0  01:35      1.65    1.77    1.00
  YSB1154YSB6556       CONDUIT     73.30     0  01:35      0.20    0.13    0.92
  YSB1171HS02004479    CONDUIT    129.86     0  01:35      0.54    0.09    0.84
  YSB1174YSB1171       CONDUIT     57.56     0  01:33      0.15    0.09    0.96
  YSB6556YSB1171       CONDUIT     73.12     0  01:36      0.20    0.08    0.92
  CC-R1                PUMP       683.00     0  00:00              1.00
  CC-R2                PUMP       683.00     0  00:00              1.00
  CC-S1                PUMP       200.00     0  00:00              1.00
  CC-S2                PUMP       200.00     0  00:00              1.00
  JK-R1                PUMP      1000.00     0  00:00              1.00
  JK-R2                PUMP      1000.00     0  00:00              1.00
  JK-S                 PUMP       300.00     0  00:00              1.00
  XR-1                 PUMP        95.00     0  00:00              1.00
  XR-2                 PUMP        95.00     0  00:00              1.00
  XR-3                 PUMP        95.00     0  00:00              1.00
  XR-4                 PUMP        95.00     0  00:00              1.00
  
  
  ***************************
  Flow Classification Summary
  ***************************
  
  -------------------------------------------------------------------------------------
                      Adjusted    ---------- Fraction of Time in Flow Class ---------- 
                       /Actual         Up    Down  Sub   Sup   Up    Down  Norm  Inlet 
  Conduit               Length    Dry  Dry   Dry   Crit  Crit  Crit  Crit  Ltd   Ctrl  
  -------------------------------------------------------------------------------------
  1                       1.00   0.00  0.00  0.00  0.00  1.00  0.00  0.00  0.37  0.00
  HS02004478WS02006287    1.00   0.14  0.00  0.00  0.39  0.47  0.00  0.00  0.60  0.00
  HS02004479HS02004480    1.00   0.06  0.00  0.00  0.94  0.00  0.00  0.00  0.10  0.00
  HS02004480HS02004478    1.00   0.13  0.00  0.00  0.35  0.00  0.00  0.52  0.00  0.00
  HS02004770HS02004777    1.00   0.00  0.13  0.00  0.87  0.00  0.00  0.00  0.01  0.00
  HS02004777HS02004785    1.00   0.00  0.00  0.00  1.00  0.00  0.00  0.00  0.10  0.00
  HS02004785HS02004788    1.00   0.00  0.00  0.00  1.00  0.00  0.00  0.00  0.00  0.00
  HS02004788HS02004792    1.00   0.00  0.00  0.00  0.99  0.01  0.00  0.00  0.98  0.00
  HS02004792HS02004799    1.00   0.00  0.00  0.00  0.99  0.01  0.00  0.00  0.92  0.00
  HS02004799HS02004480    1.00   0.00  0.05  0.00  0.86  0.00  0.08  0.00  0.00  0.00
  HS02004802HS02004478    1.00   0.13  0.00  0.00  0.87  0.00  0.00  0.00  0.01  0.00
  HS02004807HS02004802    1.00   0.13  0.00  0.00  0.86  0.00  0.00  0.01  0.00  0.00
  HS02004817HS02004807    1.00   0.00  0.13  0.00  0.87  0.00  0.00  0.00  0.01  0.00
  HS02004817HS02004824    1.00   0.00  0.00  0.00  1.00  0.00  0.00  0.00  0.83  0.00
  HS02004824HS02004830    1.00   0.00  0.00  0.00  1.00  0.00  0.00  0.00  0.03  0.00
  HS02004830HS02004837    1.00   0.00  0.00  0.00  1.00  0.00  0.00  0.00  0.99  0.00
  HS02004837HS02004842    1.00   0.00  0.00  0.00  1.00  0.00  0.00  0.00  0.11  0.00
  HS02004842HS02004848    1.00   0.00  0.13  0.00  0.87  0.00  0.00  0.00  0.56  0.00
  HS02004848HS02004852    1.00   0.13  0.00  0.00  0.87  0.00  0.00  0.00  0.84  0.00
  HS02004852HS02004856    1.00   0.13  0.00  0.00  0.87  0.00  0.00  0.00  0.69  0.00
  HS02004856HS02004862    1.00   0.00  0.14  0.00  0.86  0.00  0.00  0.00  0.86  0.00
  HS02004862HS02004870    1.00   0.00  0.00  0.00  1.00  0.00  0.00  0.00  0.02  0.00
  HS02004870HS02004876    1.00   0.00  0.00  0.00  0.97  0.02  0.00  0.00  0.95  0.00
  HS02004876HS02004881    1.00   0.02  0.00  0.00  0.56  0.42  0.00  0.00  0.00  0.00
  HS02004881HS02006253    1.00   0.00  0.08  0.00  0.46  0.01  0.00  0.46  0.26  0.00
  HS02004901HS02004770    1.00   0.13  0.00  0.00  0.87  0.00  0.00  0.00  0.00  0.00
  WS02001211WS02001212    1.00   0.00  0.03  0.00  0.97  0.00  0.00  0.00  0.00  0.00
  WS02001212WS02001213    1.00   0.03  0.00  0.00  0.49  0.00  0.48  0.00  0.00  0.00
  WS02001213WS02003059    1.00   0.00  0.00  0.00  0.99  0.00  0.00  0.00  0.00  0.00
  WS02003059WS02003060    1.00   0.00  0.00  0.00  1.00  0.00  0.00  0.00  0.03  0.00
  WS02003060WS02003069    1.00   0.00  0.00  0.00  0.97  0.03  0.00  0.00  0.52  0.00
  WS02003066WSF200        1.00   0.08  0.00  0.00  0.00  0.92  0.00  0.00  0.70  0.00
  WS02003067WS02003066    1.00   0.07  0.01  0.00  0.92  0.00  0.00  0.00  0.00  0.00
  WS02003069WS02003072    1.00   0.00  0.00  0.00  1.00  0.00  0.00  0.00  0.65  0.00
  WS02003072WS02003073    1.00   0.00  0.00  0.00  0.00  0.00  0.00  1.00  0.00  0.00
  WS02004138WS02004139    1.00   0.00  0.01  0.00  0.97  0.01  0.00  0.01  0.98  0.00
  WS02004139WS02001211    1.00   0.00  0.00  0.00  0.99  0.00  0.00  0.00  0.00  0.00
  WS02004401WS02004402    1.00   0.03  0.00  0.00  0.97  0.00  0.00  0.00  0.00  0.00
  WS02004402WS02004403    1.00   0.03  0.00  0.00  0.97  0.00  0.00  0.00  0.00  0.00
  WS02004403WS02004404    1.00   0.00  0.03  0.00  0.97  0.00  0.00  0.00  0.00  0.00
  WS02004404WS02004405    1.00   0.00  0.00  0.00  1.00  0.00  0.00  0.00  0.00  0.00
  WS02004405WS02004406    1.00   0.00  0.00  0.00  1.00  0.00  0.00  0.00  0.00  0.00
  WS02004406WS02004407    1.00   0.00  0.05  0.00  0.95  0.00  0.00  0.00  0.00  0.00
  WS02004407WS02004409    1.00   0.05  0.00  0.00  0.92  0.02  0.00  0.00  0.88  0.00
  WS02004409WS02004410    1.00   0.05  0.00  0.00  0.94  0.00  0.00  0.00  0.00  0.00
  WS02004410WS02004411    1.00   0.05  0.00  0.00  0.94  0.00  0.00  0.00  0.00  0.00
  WS02004411WS02004412    1.00   0.06  0.00  0.00  0.94  0.00  0.00  0.00  0.00  0.00
  WS02004412WS02004413    1.00   0.06  0.00  0.00  0.94  0.00  0.00  0.00  0.00  0.00
  WS02004413WS02003067    1.00   0.06  0.01  0.00  0.00  0.00  0.93  0.00  0.00  0.00
  WS02006109WS02006110    1.00   0.00  0.01  0.00  0.98  0.00  0.01  0.00  0.00  0.00
  WS02006110WS02006113    1.00   0.01  0.01  0.00  0.98  0.00  0.00  0.00  0.00  0.00
  WS02006111WS02006112    1.00   0.02  0.00  0.00  0.97  0.00  0.00  0.00  0.75  0.00
  WS02006112WS02006115    1.00   0.02  0.00  0.00  0.97  0.00  0.01  0.00  0.00  0.00
  WS02006113WS02006111    1.00   0.02  0.00  0.00  0.38  0.60  0.00  0.00  0.09  0.00
  WS02006115WS02006116    1.00   0.02  0.00  0.00  0.96  0.00  0.00  0.01  0.00  0.00
  WS02006116WS02004401    1.00   0.02  0.00  0.00  0.97  0.00  0.00  0.00  0.00  0.00
  WS02006228WS02006109    1.00   0.00  0.00  0.00  1.00  0.00  0.00  0.00  0.00  0.00
  WS02006229WS02006228    1.00   0.00  0.00  0.00  0.99  0.00  0.00  0.01  0.00  0.00
  WS02006230WS02006229    1.00   0.00  0.00  0.00  0.99  0.00  0.00  0.01  0.03  0.00
  WS02006231WS02006230    1.00   0.00  0.00  0.00  0.55  0.00  0.45  0.00  0.00  0.00
  WS02006232WS02006231    1.00   0.00  0.00  0.00  0.99  0.00  0.00  0.00  0.00  0.00
  WS02006234WS02006232    1.00   0.00  0.00  0.00  1.00  0.00  0.00  0.00  0.05  0.00
  WS02006235WS02006234    1.00   0.00  0.00  0.00  0.86  0.00  0.14  0.00  0.00  0.00
  WS02006238WS02006235    1.00   0.00  0.00  0.00  1.00  0.00  0.00  0.00  0.01  0.00
  WS02006239WS02006238    1.00   0.00  0.00  0.00  1.00  0.00  0.00  0.00  0.19  0.00
  WS02006240WS02006239    1.00   0.00  0.00  0.00  0.77  0.00  0.00  0.22  0.04  0.00
  WS02006242WS02006240    1.00   0.00  0.00  0.00  0.99  0.00  0.01  0.00  0.00  0.00
  WS02006243WS02006242    1.00   0.00  0.00  0.00  0.99  0.00  0.00  0.01  0.62  0.00
  WS02006245WS02006243    1.00   0.00  0.00  0.00  0.90  0.00  0.00  0.10  0.00  0.00
  WS02006247WS02006245    1.00   0.00  0.00  0.00  0.98  0.00  0.00  0.02  0.00  0.00
  WS02006248WS02006247    1.00   0.00  0.00  0.00  0.99  0.00  0.00  0.01  0.62  0.00
  WS02006249WS02006248    1.00   0.00  0.00  0.00  0.60  0.00  0.40  0.00  0.00  0.00
  WS02006251WS02006249    1.00   0.00  0.00  0.00  1.00  0.00  0.00  0.00  0.61  0.00
  WS02006252WS02006251    1.00   0.00  0.21  0.00  0.41  0.00  0.37  0.00  0.00  0.00
  WS02006253WS02006251    1.00   0.00  0.00  0.00  0.98  0.00  0.02  0.00  0.00  0.00
  WS02006256WS02006235    1.00   0.00  0.00  0.00  0.99  0.01  0.00  0.00  0.01  0.00
  WS02006280WS02006229    1.00   0.14  0.00  0.00  0.23  0.10  0.00  0.53  0.02  0.00
  WS02006284WS02006280    1.00   0.13  0.00  0.00  0.00  0.00  0.00  0.86  0.00  0.00
  WS02006287WS02006284    1.00   0.12  0.02  0.00  0.31  0.54  0.00  0.01  0.66  0.00
  WSF200WS02003060        1.00   0.00  0.08  0.00  0.46  0.46  0.00  0.00  0.64  0.00
  YS02001580YS02001583    1.00   0.16  0.44  0.00  0.40  0.00  0.00  0.00  0.71  0.00
  YS02001583YS02001586    1.00   0.29  0.22  0.00  0.49  0.00  0.00  0.00  0.71  0.00
  YS02001586YS02001590    1.00   0.13  0.00  0.00  0.61  0.02  0.00  0.23  0.34  0.00
  YS02001590YS02001593    1.00   0.13  0.00  0.00  0.31  0.00  0.56  0.00  0.00  0.00
  YS02001593YS02001596    1.00   0.13  0.00  0.00  0.34  0.03  0.00  0.50  0.03  0.00
  YS02001596YS02001600    1.00   0.13  0.00  0.00  0.45  0.02  0.00  0.40  0.03  0.00
  YS02001600YS02001601    1.00   0.13  0.00  0.00  0.87  0.00  0.00  0.00  0.57  0.00
  YS02001601YS02001602    1.00   0.13  0.00  0.00  0.87  0.00  0.00  0.00  0.00  0.00
  YS02001602YS02001605    1.00   0.13  0.00  0.00  0.87  0.00  0.00  0.00  0.00  0.00
  YS02001605YS02001607    1.00   0.13  0.00  0.00  0.87  0.00  0.00  0.00  0.00  0.00
  YS02001607YS02001610    1.00   0.13  0.00  0.00  0.87  0.00  0.00  0.00  0.00  0.00
  YS02001610YS02001613    1.00   0.13  0.00  0.00  0.87  0.00  0.00  0.00  0.00  0.00
  YS02001613YS02001616    1.00   0.13  0.00  0.00  0.87  0.00  0.00  0.00  0.00  0.00
  YS02001616YS02001619    1.00   0.13  0.00  0.00  0.87  0.00  0.00  0.00  0.00  0.00
  YS02001619YS02001622    1.00   0.13  0.00  0.00  0.87  0.00  0.00  0.00  0.28  0.00
  YS02001622YS02001625    1.00   0.13  0.00  0.00  0.87  0.00  0.00  0.00  0.01  0.00
  YS02001625YS02001629    1.00   0.13  0.01  0.00  0.41  0.00  0.45  0.00  0.00  0.00
  YS02001629YS02163301    1.00   0.13  0.00  0.00  0.87  0.00  0.00  0.00  0.00  0.00
  YS02001633YS02163601    1.00   0.00  0.01  0.00  0.99  0.00  0.00  0.00  0.13  0.00
  YS02001641YS02001644    1.00   0.00  0.00  0.00  1.00  0.00  0.00  0.00  0.00  0.00
  YS02001644YS02001647    1.00   0.00  0.13  0.00  0.87  0.00  0.00  0.00  0.00  0.00
  YS02001647YS02001649    1.00   0.00  0.13  0.00  0.53  0.34  0.00  0.00  0.56  0.00
  YS02001649YS02001757    1.00   0.00  0.00  0.00  0.58  0.42  0.00  0.00  0.65  0.00
  YS02001652YS02001649    1.00   0.00  0.00  0.00  0.99  0.01  0.00  0.00  0.70  0.00
  YS02001655YS02001652    1.00   0.00  0.00  0.00  0.45  0.01  0.00  0.54  0.14  0.00
  YS02001658YS02001655    1.00   0.00  0.13  0.00  0.49  0.38  0.00  0.00  0.81  0.00
  YS02001661YS02001658    1.00   0.13  0.00  0.00  0.24  0.63  0.00  0.00  0.81  0.00
  YS02001664YS02001661    1.00   0.13  0.00  0.00  0.45  0.42  0.00  0.00  0.87  0.00
  YS02001745YS02001748    1.00   0.00  0.00  0.00  0.00  0.00  0.00  1.00  0.00  0.00
  YS02001748YS02001751    1.00   0.00  0.00  0.00  0.57  0.43  0.00  0.00  0.85  0.00
  YS02001751YS02001754    1.00   0.00  0.00  0.00  0.30  0.02  0.00  0.68  0.10  0.00
  YS02001754YS02001757    1.00   0.00  0.00  0.00  1.00  0.00  0.00  0.00  0.80  0.00
  YS02001757CaochengTiaoxuchi    1.00   0.00  0.00  0.00  0.10  0.90  0.00  0.00  0.23  0.00
  YS02001759YS02001757    1.00   0.00  0.00  0.00  1.00  0.00  0.00  0.00  0.62  0.00
  YS02001762YS02001759    1.00   0.00  0.00  0.00  1.00  0.00  0.00  0.00  0.03  0.00
  YS02001765YS02001762    1.00   0.00  0.00  0.00  1.00  0.00  0.00  0.00  0.68  0.00
  YS02001767YS02001765    1.00   0.00  0.00  0.00  1.00  0.00  0.00  0.00  0.00  0.00
  YS02001770YS02001767    1.00   0.00  0.00  0.00  1.00  0.00  0.00  0.00  0.00  0.00
  YS02001774YS02001770    1.00   0.00  0.13  0.00  0.78  0.00  0.09  0.00  0.00  0.00
  YS02001779YS02001774    1.00   0.00  0.00  0.00  1.00  0.00  0.00  0.00  0.74  0.00
  YS02001783YS02001784    1.00   0.00  0.14  0.00  0.86  0.00  0.00  0.00  0.55  0.00
  YS02001784YS02001785    1.00   0.00  0.00  0.00  1.00  0.00  0.00  0.00  0.13  0.00
  YS02001786YS02001788    1.00   0.00  0.00  0.00  0.61  0.39  0.00  0.00  0.00  0.00
  YS02001788YS02001790    1.00   0.00  0.00  0.00  0.17  0.83  0.00  0.00  0.76  0.00
  YS02001790YS02001791    1.00   0.00  0.00  0.00  0.01  0.99  0.00  0.00  0.19  0.00
  YS02001791YS02001793    1.00   0.00  0.00  0.00  0.00  1.00  0.00  0.00  0.01  0.00
  YS02001793JiankangQianchi    1.00   0.00  0.00  0.00  0.11  0.88  0.00  0.00  0.57  0.00
  YS02001882YS02001884    1.00   0.13  0.00  0.00  0.87  0.00  0.00  0.00  0.00  0.00
  YS02001884YS02001887    1.00   0.09  0.04  0.00  0.88  0.00  0.00  0.00  0.00  0.00
  YS02001887YS02001890    1.00   0.00  0.00  0.00  0.96  0.00  0.04  0.00  0.00  0.00
  YS02001890YS02001895    1.00   0.00  0.13  0.00  0.87  0.00  0.00  0.00  0.00  0.00
  YS02001895YS02001898    1.00   0.13  0.00  0.00  0.86  0.00  0.00  0.00  0.00  0.00
  YS02001898YS02001901    1.00   0.13  0.00  0.00  0.87  0.00  0.00  0.00  0.00  0.00
  YS02001901YS02001904    1.00   0.13  0.00  0.00  0.87  0.00  0.00  0.00  0.00  0.00
  YS02001904YS02001907    1.00   0.00  0.13  0.00  0.87  0.00  0.00  0.00  0.00  0.00
  YS02001907YS02006553    1.00   0.00  0.02  0.00  0.97  0.00  0.00  0.00  0.00  0.00
  YS02001910YS02001907    1.00   0.00  0.00  0.00  0.96  0.01  0.00  0.03  0.10  0.00
  YS02001915YS02001910    1.00   0.00  0.00  0.00  0.97  0.02  0.00  0.00  0.11  0.00
  YS02001918YS02001915    1.00   0.00  0.00  0.00  0.97  0.02  0.00  0.00  0.70  0.00
  YS02001920YS02001918    1.00   0.00  0.00  0.00  1.00  0.00  0.00  0.00  0.00  0.00
  YS02001923YS02001920    1.00   0.00  0.00  0.00  1.00  0.00  0.00  0.00  0.90  0.00
  YS02001926YS02001923    1.00   0.00  0.10  0.00  0.12  0.00  0.78  0.00  0.00  0.00
  YS02001929YS02001926    1.00   0.00  0.13  0.00  0.87  0.00  0.00  0.00  0.84  0.00
  YS02006553YS02006556    1.00   0.01  0.00  0.00  0.99  0.00  0.00  0.00  0.03  0.00
  YS02006556YS02006558    1.00   0.00  0.00  0.00  1.00  0.00  0.00  0.00  0.00  0.00
  YS02006558YS02006561    1.00   0.14  0.00  0.00  0.08  0.78  0.00  0.00  0.19  0.00
  YS02006561YS02001783    1.00   0.14  0.00  0.00  0.22  0.64  0.00  0.00  0.67  0.00
  YS02163301YS02001633    1.00   0.00  0.13  0.00  0.87  0.00  0.00  0.00  0.00  0.00
  YS02163601YS02164001    1.00   0.00  0.10  0.00  0.90  0.00  0.00  0.00  0.00  0.00
  YS02164001YS02001641    1.00   0.01  0.10  0.00  0.90  0.00  0.00  0.00  0.05  0.00
  YSB1154YSB6556          1.00   0.13  0.00  0.00  0.87  0.00  0.00  0.00  0.01  0.00
  YSB1171HS02004479       1.00   0.06  0.00  0.00  0.92  0.00  0.00  0.02  0.09  0.00
  YSB1174YSB1171          1.00   0.08  0.04  0.00  0.89  0.00  0.00  0.00  0.00  0.00
  YSB6556YSB1171          1.00   0.06  0.07  0.00  0.87  0.00  0.00  0.00  0.00  0.00
  
  
  *************************
  Conduit Surcharge Summary
  *************************
  
  ----------------------------------------------------------------------------
                                                           Hours        Hours 
                         --------- Hours Full --------   Above Full   Capacity
  Conduit                Both Ends  Upstream  Dnstream   Normal Flow   Limited
  ----------------------------------------------------------------------------
  HS02004480HS02004478        0.01      0.01      0.01      1.83         0.01
  HS02004785HS02004788        0.01      0.01      0.01      1.30         0.01
  HS02004817HS02004807        0.01      0.01      0.95      0.01         0.01
  HS02004817HS02004824        0.01      0.01      0.95      0.01         0.01
  HS02004876HS02004881        0.01      0.01      0.01      1.31         0.01
  HS02004881HS02006253        0.01      0.01      1.83      0.01         0.01
  WS02003072WS02003073        0.01      0.01      0.01      2.35         0.01
  WS02004401WS02004402        1.77      1.77      1.80      1.29         1.19
  WS02004402WS02004403        1.80      1.80      1.81      1.77         1.74
  WS02004403WS02004404        1.81      1.81      1.86      0.01         0.01
  WS02004404WS02004405        1.85      1.86      1.85      3.28         1.85
  WS02004405WS02004406        1.84      1.85      1.84      1.92         1.84
  WS02004406WS02004407        0.01      0.01      1.84      0.01         0.01
  WS02004407WS02004409        0.01      0.01      0.56      0.01         0.01
  WS02004409WS02004410        0.27      0.56      0.27      1.49         0.27
  WS02004410WS02004411        0.01      0.27      0.01      1.72         0.01
  WS02004411WS02004412        0.01      0.01      0.01      1.75         0.01
  WS02004412WS02004413        0.01      0.01      1.14      0.01         0.01
  WS02004413WS02003067        0.01      0.01      1.14      0.01         0.01
  WS02006109WS02006110        1.89      1.89      2.18      1.90         0.01
  WS02006110WS02006113        1.04      1.04      2.13      0.01         0.01
  WS02006111WS02006112        0.99      0.99      2.36      0.01         0.01
  WS02006112WS02006115        1.55      1.55      1.94      0.01         0.01
  WS02006113WS02006111        1.01      1.04      1.01      1.27         1.01
  WS02006115WS02006116        1.64      1.64      1.66      1.48         1.44
  WS02006116WS02004401        1.76      1.76      1.77      1.75         1.71
  WS02006228WS02006109        2.07      2.18      2.07      2.61         2.07
  WS02006229WS02006228        2.05      2.12      2.05      2.44         2.05
  WS02006230WS02006229        2.29      2.34      2.29      3.32         1.41
  WS02006231WS02006230        1.85      1.85      1.87      2.78         0.79
  WS02006232WS02006231        1.86      1.86      2.08      0.01         0.02
  WS02006234WS02006232        1.88      1.88      2.08      0.01         0.12
  WS02006235WS02006234        1.86      1.87      1.96      2.41         0.58
  WS02006238WS02006235        1.98      1.98      2.08      0.01         0.11
  WS02006239WS02006238        2.01      2.05      2.01      0.73         0.86
  WS02006240WS02006239        1.96      1.98      1.96      0.69         0.80
  WS02006242WS02006240        1.96      1.96      2.11      1.05         0.40
  WS02006243WS02006242        1.99      1.99      2.08      0.01         0.04
  WS02006245WS02006243        1.97      1.99      1.98      0.58         0.61
  WS02006247WS02006245        1.97      2.02      1.97      1.95         1.11
  WS02006248WS02006247        1.98      1.98      2.00      0.03         0.17
  WS02006249WS02006248        1.96      1.96      2.00      1.47         0.01
  WS02006251WS02006249        2.00      2.03      2.00      2.28         1.98
  WS02006252WS02006251        2.39      2.39      2.39      2.39         0.01
  WS02006253WS02006251        2.02      2.02      2.06      0.01         0.01
  WS02006256WS02006235        2.70      2.84      6.10      0.20         0.26
  WS02006280WS02006229        0.01      0.01      0.04      0.01         0.01
  YS02001580YS02001583        0.63      0.63      0.78      0.01         0.01
  YS02001583YS02001586        0.65      0.65      0.93      0.01         0.01
  YS02001586YS02001590        0.94      0.94      1.04      0.01         0.01
  YS02001590YS02001593        1.05      1.05      1.08      1.18         0.01
  YS02001593YS02001596        1.06      1.06      1.27      0.01         0.01
  YS02001596YS02001600        1.33      1.33      1.48      0.01         0.01
  YS02001600YS02001601        1.61      1.61      1.96      0.01         0.01
  YS02001601YS02001602        1.89      1.89      1.99      1.56         0.01
  YS02001602YS02001605        1.85      1.85      1.89      2.51         0.01
  YS02001605YS02001607        1.81      1.85      1.81      1.94         1.81
  YS02001607YS02001610        0.95      0.95      0.99      0.01         0.01
  YS02001610YS02001613        0.93      0.93      0.99      0.01         0.01
  YS02001613YS02001616        0.86      0.86      0.93      0.01         0.01
  YS02001616YS02001619        0.84      0.84      0.86      0.01         0.01
  YS02001619YS02001622        0.82      0.84      0.82      1.13         0.82
  YS02001622YS02001625        0.82      0.82      1.16      0.01         0.01
  YS02001625YS02001629        0.57      0.57      1.16      0.01         0.01
  YS02001629YS02163301        1.12      1.12      1.13      0.92         0.85
  YS02001633YS02163601        1.18      1.18      1.23      0.97         0.97
  YS02001641YS02001644        0.86      0.96      0.86      1.99         0.86
  YS02001644YS02001647        0.01      0.01      0.86      0.01         0.01
  YS02001649YS02001757        0.01      0.01      0.01      0.59         0.01
  YS02001757CaochengTiaoxuchi        0.01      0.01      0.01      0.55         0.01
  YS02001770YS02001767        0.01      0.01      0.01      0.75         0.01
  YS02001783YS02001784        0.57      0.63      0.57      0.89         0.57
  YS02001784YS02001785        0.23      0.57      0.23      1.34         0.23
  YS02001786YS02001788        0.01      0.23      0.01      1.09         0.01
  YS02001790YS02001791        0.01      0.01      0.01      0.53         0.01
  YS02001882YS02001884        0.45      0.45      0.50      0.01         0.01
  YS02001884YS02001887        0.56      0.56      0.60      0.01         0.01
  YS02001887YS02001890        0.63      0.63      0.66      0.01         0.01
  YS02001890YS02001895        0.42      0.42      0.69      0.01         0.01
  YS02001895YS02001898        0.39      0.39      0.42      0.01         0.01
  YS02001898YS02001901        0.43      0.43      0.56      0.01         0.01
  YS02001901YS02001904        0.54      0.54      0.56      0.01         0.01
  YS02001904YS02001907        0.54      0.54      1.05      0.01         0.01
  YS02001907YS02006553        1.35      1.35      1.43      0.01         0.01
  YS02001910YS02001907        0.69      0.69      1.01      0.01         0.01
  YS02001915YS02001910        0.46      0.46      0.69      0.01         0.01
  YS02001918YS02001915        0.18      0.18      0.46      0.01         0.01
  YS02001920YS02001918        0.18      0.18      0.22      0.01         0.01
  YS02001923YS02001920        0.01      0.01      0.22      0.01         0.01
  YS02006553YS02006556        0.84      0.84      1.04      0.01         0.01
  YS02006556YS02006558        0.93      0.93      1.08      0.01         0.01
  YS02006558YS02006561        0.29      0.83      0.29      1.27         0.29
  YS02006561YS02001783        0.09      0.09      0.63      0.01         0.01
  YS02163301YS02001633        1.13      1.13      1.22      0.01         0.05
  YS02163601YS02164001        0.99      0.99      1.23      0.71         0.01
  YS02164001YS02001641        0.96      0.99      0.96      1.31         0.96
  YSB1154YSB6556              0.01      0.01      0.04      0.01         0.01
  YSB1171HS02004479           0.01      0.01      0.07      0.01         0.01
  YSB1174YSB1171              0.01      0.01      0.82      0.01         0.01
  YSB6556YSB1171              0.01      0.01      1.05      0.01         0.01
  
  
  ***************
  Pumping Summary
  ***************
  
  ---------------------------------------------------------------------------------------------------------
                                                  Min       Avg       Max     Total     Power    % Time Off
                        Percent   Number of      Flow      Flow      Flow    Volume     Usage    Pump Curve
  Pump                 Utilized   Start-Ups       LPS       LPS       LPS  10^6 ltr     Kw-hr    Low   High
  ---------------------------------------------------------------------------------------------------------
  CC-R1                   29.92           5      0.00    683.00    683.00     5.885     94.95    0.0  100.0
  CC-R2                   29.92           5      0.00    683.00    683.00     5.885     94.95    0.0  100.0
  CC-S1                   29.92           5      0.00    200.00    200.00     1.723     14.23    0.0   34.5
  CC-S2                   29.92           5      0.00    200.00    200.00     1.723     14.23    0.0   34.5
  JK-R1                    9.29         472      0.00    991.61   1000.00     2.627      6.36    0.0    0.0
  JK-R2                    9.29         472      0.00    991.61   1000.00     2.627      6.36    0.0    0.0
  JK-S                     9.29         472      0.00    299.74    300.00     0.801     18.28    0.0    0.0
  XR-1                    97.91           2      0.00     95.00     95.00     2.679      9.63    0.0    0.0
  XR-2                    93.94           2      0.00     95.00     95.00     2.570      8.78    0.0    0.0
  XR-3                     0.00           1      0.00     95.00     95.00     0.000      0.00    0.0    0.0
  XR-4                     0.00           1      0.00     95.00     95.00     0.000      0.00    0.0    0.0
  

  Analysis begun on:  Thu Jul 20 11:18:23 2023
  Analysis ended on:  Thu Jul 20 11:18:28 2023
  Total elapsed time: 00:00:05