
  OWA STORM WATER MANAGEMENT MODEL - VERSION v5.1.14 (OWA 2022-07-31)
  --------------------------------------------------------------

  WARNING 04: minimum elevation drop used for Conduit WS02004404WS02004405
  WARNING 03: negative offset ignored for Link YS02001904YS02001907
  
  *********************************************************
  NOTE: The summary statistics displayed in this report are
  based on results found at every computational time step,  
  not just on results from each reporting time step.
  *********************************************************
  
  ****************
  Analysis Options
  ****************
  Flow Units ............... LPS
  Process Models:
    Rainfall/Runoff ........ YES
    RDII ................... NO
    Snowmelt ............... NO
    Groundwater ............ NO
    Flow Routing ........... YES
    Ponding Allowed ........ NO
    Water Quality .......... NO
  Infiltration Method ...... HORTON
  Flow Routing Method ...... DYNWAVE
  Surcharge Method ......... EXTRAN
  Starting Date ............ 08/28/2015 08:00:00
  Ending Date .............. 08/28/2015 16:00:00
  Antecedent Dry Days ...... 8.0
  Report Time Step ......... 00:01:00
  Wet Time Step ............ 00:01:00
  Dry Time Step ............ 00:01:00
  Routing Time Step ........ 30.00 sec
  Variable Time Step ....... YES
  Maximum Trials ........... 8
  Number of Threads ........ 4
  Head Tolerance ........... 0.001500 m
  
  
  **************************        Volume         Depth
  Runoff Quantity Continuity     hectare-m            mm
  **************************     ---------       -------
  Initial LID Storage ......         0.049         1.488
  Total Precipitation ......         3.865       116.510
  Evaporation Loss .........         0.000         0.000
  Infiltration Loss ........         0.081         2.431
  Surface Runoff ...........         3.025        91.211
  Final Storage ............         0.809        24.380
  Continuity Error (%) .....        -0.021
  
  
  **************************        Volume        Volume
  Flow Routing Continuity        hectare-m      10^6 ltr
  **************************     ---------     ---------
  Dry Weather Inflow .......         0.025         0.251
  Wet Weather Inflow .......         3.026        30.262
  Groundwater Inflow .......         0.000         0.000
  RDII Inflow ..............         0.000         0.000
  External Inflow ..........         0.083         0.834
  External Outflow .........         1.863        18.632
  Flooding Loss ............         1.369        13.688
  Evaporation Loss .........         0.000         0.000
  Exfiltration Loss ........         0.000         0.000
  Initial Stored Volume ....         0.243         2.431
  Final Stored Volume ......         0.181         1.805
  Continuity Error (%) .....        -1.028
  
  
  *************************
  Highest Continuity Errors
  *************************
  Node YS02001884 (5.14%)
  Node YS02001583 (-4.33%)
  Node WS02006256 (-4.16%)
  
  
  ***************************
  Time-Step Critical Elements
  ***************************
  Link WS02006252WS02006251 (35.66%)
  Link WS02006238WS02006235 (16.70%)
  Link WS02004404WS02004405 (13.76%)
  Link WS02006235WS02006234 (11.12%)
  Link YS02001791YS02001793 (6.76%)
  
  
  ********************************
  Highest Flow Instability Indexes
  ********************************
  Link WS02006113WS02006111 (50)
  Link WS02006111WS02006112 (25)
  Link WS02006256WS02006235 (24)
  Link WS02006238WS02006235 (19)
  Link WS02006252WS02006251 (18)
  
  
  *************************
  Routing Time Step Summary
  *************************
  Minimum Time Step           :     0.00 sec
  Average Time Step           :     2.32 sec
  Maximum Time Step           :    30.00 sec
  Percent in Steady State     :    -0.00
  Average Iterations per Step :     3.47
  Percent Not Converging      :    16.22
  
  
  ***************************
  Subcatchment Runoff Summary
  ***************************
  
  ------------------------------------------------------------------------------------------------------------------------------
                            Total      Total      Total      Total     Imperv       Perv      Total       Total     Peak  Runoff
                           Precip      Runon       Evap      Infil     Runoff     Runoff     Runoff      Runoff   Runoff   Coeff
  Subcatchment                 mm         mm         mm         mm         mm         mm         mm    10^6 ltr      LPS
  ------------------------------------------------------------------------------------------------------------------------------
  sub60                    139.36       0.00       0.00       1.45      93.74      11.46     107.87        1.42   960.35   0.774
  sub61                    139.36       0.00       0.00       2.23      93.65      17.14     112.93        2.07  1404.22   0.810
  sub62                    139.36       0.00       0.00       0.99      99.86       7.78     110.15        3.02  1951.45   0.790
  sub63                    139.36       0.00       0.00       4.09      80.21      28.99     111.34        2.53  1632.37   0.799
  sub64                    139.36       0.00       0.00       1.96      91.36      14.32     108.28        2.60  1615.76   0.777
  sub65                    139.36       0.00       0.00       1.80      98.62      13.09     113.80        3.13  1893.54   0.817
  sub66                    139.36       0.00       0.00       4.78      77.63      27.27     107.33        5.01  2565.48   0.770
  sub67                     51.25       0.00       0.00       0.90      37.00       2.40      39.40        0.73   536.00   0.769
  sub68                     51.25       0.00       0.00       1.58      32.67       3.89      36.56        1.01   683.38   0.713
  sub69                    139.36       0.00       0.00       1.59      93.80      14.97     111.21        4.12  2445.62   0.798
  sub70                    139.36       0.00       0.00       5.34      75.20      33.45     110.77        3.20  1483.22   0.795
  sub71                     51.25       0.00       0.00       0.84      32.77       2.09      34.86        0.91   566.97   0.680
  sub72                     51.25       0.00       0.00       0.80      35.39       1.94      37.34        0.51   292.18   0.729
  

  ***********************
  LID Performance Summary
  ***********************

  --------------------------------------------------------------------------------------------------------------------
                                         Total      Evap     Infil   Surface    Drain    Initial     Final  Continuity
                                        Inflow      Loss      Loss   Outflow   Outflow   Storage   Storage       Error
  Subcatchment      LID Control             mm        mm        mm        mm        mm        mm        mm           %
  --------------------------------------------------------------------------------------------------------------------
  sub60             GreenRoof           139.36      0.00      0.00     11.73      0.00      7.05    134.68        0.00
  sub61             GreenRoof           139.36      0.00      0.00     11.73      0.00      7.05    134.68        0.00
  sub62             GreenRoof           139.36      0.00      0.00     11.73      0.00      7.05    134.68        0.00
  sub63             GreenRoof           139.36      0.00      0.00     11.73      0.00      7.05    134.68        0.00
  sub64             GreenRoof           139.36      0.00      0.00     11.73      0.00      7.05    134.68        0.00
  sub65             GreenRoof           139.36      0.00      0.00     11.73      0.00      7.05    134.68        0.00
  sub66             GreenRoof           139.36      0.00      0.00     11.73      0.00      7.05    134.68        0.00
  sub67             GreenRoof            51.25      0.00      0.00      0.00      0.00      7.05     58.31       -0.03
  sub68             GreenRoof            51.25      0.00      0.00      0.00      0.00      7.05     58.31       -0.03
  sub69             GreenRoof           139.36      0.00      0.00     11.73      0.00      7.05    134.68        0.00
  sub70             GreenRoof           139.36      0.00      0.00     11.73      0.00      7.05    134.68        0.00
  sub71             GreenRoof            51.25      0.00      0.00      0.00      0.00      7.05     58.31       -0.03
  sub72             GreenRoof            51.25      0.00      0.00      0.00      0.00      7.05     58.31       -0.03
  
  ******************
  Node Depth Summary
  ******************
  
  ---------------------------------------------------------------------------------
                                 Average  Maximum  Maximum  Time of Max    Reported
                                   Depth    Depth      HGL   Occurrence   Max Depth
  Node                 Type       Meters   Meters   Meters  days hr:min      Meters
  ---------------------------------------------------------------------------------
  WS02003060           JUNCTION     0.22     0.35     5.28     0  03:40        0.35
  WS02003066           JUNCTION     0.19     0.27     5.83     0  03:39        0.27
  WS02003067           JUNCTION     0.49     0.66     5.98     0  03:39        0.66
  WS02003069           JUNCTION     0.25     0.39     4.97     0  03:41        0.39
  WS02003072           JUNCTION     0.31     0.46     4.83     0  03:42        0.46
  WS02003073           JUNCTION     0.17     0.27     4.33     0  03:43        0.27
  WS02004401           JUNCTION     0.59     0.80     6.80     0  01:57        0.79
  WS02004402           JUNCTION     0.62     0.83     6.79     0  01:57        0.82
  WS02004403           JUNCTION     0.65     0.84     6.77     0  01:57        0.84
  WS02004404           JUNCTION     0.72     0.92     6.77     0  01:57        0.92
  WS02004405           JUNCTION     0.72     0.91     6.76     0  01:58        0.91
  WS02004406           JUNCTION     0.73     0.92     6.75     0  01:58        0.92
  WS02004407           JUNCTION     0.17     0.28     6.59     0  01:58        0.27
  WS02004409           JUNCTION     0.38     0.60     6.37     0  03:48        0.60
  WS02004410           JUNCTION     0.41     0.61     6.33     0  03:48        0.61
  WS02004411           JUNCTION     0.43     0.63     6.31     0  03:49        0.63
  WS02004412           JUNCTION     0.45     0.64     6.28     0  03:49        0.64
  WS02004413           JUNCTION     0.61     0.80     6.27     0  03:39        0.80
  WS02006109           JUNCTION     0.64     1.02     7.64     0  01:54        0.96
  WS02006110           JUNCTION     0.64     0.98     7.56     0  01:54        0.93
  WS02006111           JUNCTION     0.17     0.90     7.60     0  00:00        0.40
  WS02006112           JUNCTION     0.74     2.68     8.56     0  00:00        1.14
  WS02006113           JUNCTION     0.26     1.40     8.29     0  00:00        0.45
  WS02006115           JUNCTION     0.47     1.65     7.79     0  00:00        0.86
  WS02006116           JUNCTION     0.56     1.06     7.10     0  00:00        0.77
  WS02006228           JUNCTION     0.62     1.08     7.73     0  01:54        1.03
  WS02006229           JUNCTION     0.59     1.09     7.78     0  01:54        1.03
  WS02006230           JUNCTION     0.58     1.22     7.96     0  01:54        1.18
  WS02006231           JUNCTION     0.38     1.08     8.20     0  01:53        0.83
  WS02006232           JUNCTION     0.51     1.28     8.32     0  01:53        1.08
  WS02006234           JUNCTION     0.43     1.36     8.52     0  01:55        1.07
  WS02006235           JUNCTION     0.46     1.44     8.61     0  01:53        1.17
  WS02006238           JUNCTION     0.49     1.49     8.64     0  01:53        1.20
  WS02006239           JUNCTION     0.47     1.49     8.70     0  01:53        1.19
  WS02006240           JUNCTION     0.44     1.46     8.75     0  01:53        1.15
  WS02006242           JUNCTION     0.52     1.51     8.77     0  01:53        1.21
  WS02006243           JUNCTION     0.43     1.36     8.78     0  01:53        1.11
  WS02006245           JUNCTION     0.44     1.29     8.78     0  00:05        1.10
  WS02006247           JUNCTION     0.46     1.24     8.74     0  01:53        1.12
  WS02006248           JUNCTION     0.42     1.10     8.69     0  01:53        1.07
  WS02006249           JUNCTION     0.46     1.09     8.69     0  01:51        1.09
  WS02006251           JUNCTION     0.45     1.24     8.91     0  01:51        1.12
  WS02006252           JUNCTION     0.33     1.50     9.74     0  01:39        0.98
  WS02006256           JUNCTION     0.73     2.35     9.28     0  00:00        2.35
  WSF200               JUNCTION     0.16     0.26     5.50     0  03:39        0.26
  YS02001580           JUNCTION     0.16     1.05     9.59     0  01:36        0.78
  YS02001583           JUNCTION     0.19     1.14     9.64     0  01:36        1.14
  YS02001586           JUNCTION     0.29     1.13     9.30     0  01:36        1.13
  YS02001590           JUNCTION     0.39     1.40     9.26     0  01:36        1.40
  YS02001593           JUNCTION     0.33     1.46     9.32     0  01:36        1.46
  YS02001596           JUNCTION     0.45     1.75     9.17     0  02:27        1.66
  YS02001600           JUNCTION     0.53     1.87     9.00     0  01:36        1.87
  YS02001601           JUNCTION     0.70     2.06     8.90     0  01:35        2.06
  YS02001602           JUNCTION     0.61     1.87     8.77     0  01:35        1.87
  YS02001605           JUNCTION     0.56     1.78     8.68     0  01:35        1.78
  YS02001607           JUNCTION     0.54     1.68     8.53     0  01:35        1.68
  YS02001610           JUNCTION     0.57     1.68     8.48     0  01:35        1.68
  YS02001613           JUNCTION     0.54     1.70     8.54     0  01:45        1.70
  YS02001616           JUNCTION     0.48     1.61     8.52     0  01:35        1.61
  YS02001619           JUNCTION     0.46     1.61     8.54     0  01:35        1.61
  YS02001622           JUNCTION     0.45     1.62     8.52     0  01:45        1.58
  YS02001625           JUNCTION     0.67     1.78     8.38     0  01:35        1.78
  YS02001629           JUNCTION     0.58     1.85     8.40     0  01:35        1.85
  YS02001633           JUNCTION     0.65     2.08     8.53     0  01:36        2.08
  YS02001641           JUNCTION     0.62     2.10     8.54     0  02:27        2.10
  YS02001644           JUNCTION     0.61     1.92     8.35     0  01:41        1.92
  YS02001647           JUNCTION     0.43     1.90     8.51     0  02:27        1.90
  YS02001649           JUNCTION     0.49     2.05     8.44     0  01:43        2.05
  YS02001652           JUNCTION     0.39     2.16     8.76     0  01:41        2.00
  YS02001655           JUNCTION     0.31     2.20     9.05     0  01:41        1.90
  YS02001658           JUNCTION     0.23     2.19     9.33     0  01:43        1.78
  YS02001661           JUNCTION     0.22     1.68     9.08     0  01:49        1.68
  YS02001664           JUNCTION     0.09     1.33     9.25     0  01:49        1.33
  YS02001745           JUNCTION     0.12     1.13     8.64     0  01:49        1.11
  YS02001748           JUNCTION     0.22     2.27     9.35     0  01:43        1.50
  YS02001751           JUNCTION     0.27     2.20     9.08     0  01:43        1.65
  YS02001754           JUNCTION     0.35     2.13     8.74     0  01:43        1.87
  YS02001757           JUNCTION     0.51     2.21     8.47     0  01:45        2.21
  YS02001759           JUNCTION     0.46     2.21     8.57     0  01:45        2.21
  YS02001762           JUNCTION     0.45     2.15     8.55     0  01:45        2.15
  YS02001765           JUNCTION     0.43     2.06     8.51     0  01:43        2.05
  YS02001767           JUNCTION     0.43     2.02     8.51     0  01:43        1.99
  YS02001770           JUNCTION     0.43     1.95     8.44     0  01:43        1.95
  YS02001774           JUNCTION     0.49     2.05     8.47     0  01:45        2.05
  YS02001779           JUNCTION     0.33     1.68     8.37     0  01:41        1.68
  YS02001783           JUNCTION     0.17     1.29     7.43     0  02:11        1.22
  YS02001784           JUNCTION     0.19     1.17     7.23     0  02:11        1.11
  YS02001786           JUNCTION     0.16     0.91     6.94     0  02:11        0.88
  YS02001788           JUNCTION     0.11     0.62     6.60     0  02:12        0.62
  YS02001790           JUNCTION     0.14     0.72     6.36     0  02:14        0.72
  YS02001791           JUNCTION     0.09     0.44     5.91     0  02:16        0.44
  YS02001793           JUNCTION     0.04     0.21     5.04     0  02:14        0.21
  YS02001882           JUNCTION     0.22     1.69     8.40     0  02:11        1.62
  YS02001884           JUNCTION     0.30     1.77     8.39     0  02:11        1.71
  YS02001887           JUNCTION     0.37     1.83     8.37     0  02:11        1.80
  YS02001890           JUNCTION     0.40     1.81     8.32     0  02:11        1.81
  YS02001895           JUNCTION     0.19     1.57     8.32     0  02:16        1.56
  YS02001898           JUNCTION     0.20     1.58     8.31     0  02:16        1.56
  YS02001901           JUNCTION     0.29     1.68     8.29     0  02:16        1.67
  YS02001904           JUNCTION     0.28     1.64     8.27     0  02:16        1.63
  YS02001907           JUNCTION     0.56     1.96     8.25     0  02:11        1.96
  YS02001910           JUNCTION     0.38     2.03     8.54     0  02:12        1.82
  YS02001915           JUNCTION     0.22     1.97     8.69     0  02:12        1.67
  YS02001918           JUNCTION     0.11     1.81     8.88     0  02:12        1.36
  YS02001920           JUNCTION     0.19     2.14     9.15     0  02:12        1.43
  YS02001923           JUNCTION     0.08     2.03     9.29     0  02:12        1.19
  YS02001926           JUNCTION     0.12     1.90     9.35     0  02:12        1.01
  YS02001929           JUNCTION     0.06     1.78     9.47     0  02:12        0.74
  YS02006553           JUNCTION     0.56     1.98     8.26     0  02:11        1.96
  YS02006556           JUNCTION     0.54     1.96     8.27     0  02:11        1.92
  YS02006558           JUNCTION     0.58     2.01     8.27     0  02:11        1.97
  YS02006561           JUNCTION     0.10     0.99     7.65     0  02:11        0.89
  YS02163301           JUNCTION     0.60     2.03     8.55     0  02:27        2.03
  YS02163601           JUNCTION     0.68     2.08     8.48     0  01:45        2.08
  YS02164001           JUNCTION     0.61     2.10     8.56     0  02:07        2.10
  CC-1                 OUTFALL      0.00     0.00     0.00     0  00:00        0.00
  CC-2                 OUTFALL      0.00     0.00     0.00     0  00:00        0.00
  JK-1                 OUTFALL      0.00     0.00     0.00     0  00:00        0.00
  JK-2                 OUTFALL      0.00     0.00     0.00     0  00:00        0.00
  WSC                  OUTFALL      0.17     0.27     0.94     0  03:43        0.27
  CC-storage           STORAGE      0.92     1.92     7.42     0  02:31        1.92
  JK-storage           STORAGE      1.16     3.00     3.80     0  00:00        2.87
  
  
  *******************
  Node Inflow Summary
  *******************
  
  -------------------------------------------------------------------------------------------------
                                  Maximum  Maximum                  Lateral       Total        Flow
                                  Lateral    Total  Time of Max      Inflow      Inflow     Balance
                                   Inflow   Inflow   Occurrence      Volume      Volume       Error
  Node                 Type           LPS      LPS  days hr:min    10^6 ltr    10^6 ltr     Percent
  -------------------------------------------------------------------------------------------------
  WS02003060           JUNCTION     16.53   460.08     0  03:40       0.476        5.28       0.039
  WS02003066           JUNCTION      0.00   441.05     0  03:39           0         4.8       0.026
  WS02003067           JUNCTION      0.00   440.08     0  03:50           0        4.81       0.082
  WS02003069           JUNCTION      0.32   459.54     0  03:40     0.00922        5.29       0.066
  WS02003072           JUNCTION      0.00   455.93     0  03:41           0        5.28       0.122
  WS02003073           JUNCTION      1.82   456.14     0  03:42      0.0524        5.33       0.093
  WS02004401           JUNCTION      0.00  1697.33     0  00:00           0        4.91       0.223
  WS02004402           JUNCTION      0.00  1210.03     0  00:01           0         4.9       0.216
  WS02004403           JUNCTION      0.00   817.89     0  00:01           0        4.89       0.210
  WS02004404           JUNCTION      0.16   816.53     0  00:01     0.00467        4.88       0.209
  WS02004405           JUNCTION      0.04   789.03     0  00:01      0.0011        4.87       0.216
  WS02004406           JUNCTION      0.00   724.33     0  00:02           0        4.86       0.437
  WS02004407           JUNCTION      0.00   470.60     0  01:58           0        4.84       0.018
  WS02004409           JUNCTION      0.00   468.49     0  01:58           0        4.84       0.046
  WS02004410           JUNCTION      0.00   454.42     0  03:38           0        4.84       0.085
  WS02004411           JUNCTION      0.00   450.88     0  03:38           0        4.83       0.109
  WS02004412           JUNCTION      0.00   449.25     0  03:39           0        4.83       0.146
  WS02004413           JUNCTION      0.00   446.48     0  03:39           0        4.82       0.268
  WS02006109           JUNCTION      1.23  1308.01     0  00:00      0.0354        4.84       0.146
  WS02006110           JUNCTION      0.00   547.14     0  01:52           0        4.81      -0.765
  WS02006111           JUNCTION      0.00  1176.04     0  00:00           0        4.84      -0.802
  WS02006112           JUNCTION      0.00  2307.30     0  00:00           0        4.88      -0.011
  WS02006113           JUNCTION      0.00   549.17     0  01:52           0         4.8      -1.031
  WS02006115           JUNCTION      0.00   898.70     0  00:00           0        4.85      -0.668
  WS02006116           JUNCTION      0.00  1144.85     0  00:01           0        4.89      -0.517
  WS02006228           JUNCTION      0.00   545.63     0  01:52           0        4.78       0.077
  WS02006229           JUNCTION      0.00   545.28     0  01:52           0        4.77       0.165
  WS02006230           JUNCTION     10.28   595.35     0  01:53       0.296        4.75       0.018
  WS02006231           JUNCTION      0.00   580.22     0  01:53           0        4.44       0.007
  WS02006232           JUNCTION      0.00   576.22     0  01:53           0        4.44       0.058
  WS02006234           JUNCTION      0.00   566.42     0  01:55           0        4.44      -0.102
  WS02006235           JUNCTION      0.00   564.13     0  00:04           0        4.48       0.102
  WS02006238           JUNCTION      0.00   421.27     0  01:56           0        4.28      -0.255
  WS02006239           JUNCTION      0.00   421.96     0  01:56           0        4.24      -0.247
  WS02006240           JUNCTION      0.00   420.45     0  03:45           0        4.22      -0.065
  WS02006242           JUNCTION      0.00   421.61     0  03:45           0        4.21      -0.131
  WS02006243           JUNCTION      0.00   423.31     0  03:45           0        4.19      -0.306
  WS02006245           JUNCTION      0.00   423.25     0  03:45           0        4.21       0.395
  WS02006247           JUNCTION      0.00   424.60     0  03:45           0        4.21      -0.005
  WS02006248           JUNCTION      0.00   426.19     0  03:45           0        4.21      -0.002
  WS02006249           JUNCTION      0.00   793.83     0  00:00           0        4.24       0.433
  WS02006251           JUNCTION      0.08   453.22     0  00:00     0.00222        4.23      -0.291
  WS02006252           JUNCTION      0.00   400.00     0  00:00           0         4.2      -0.677
  WS02006256           JUNCTION      0.00   300.00     0  00:00           0       0.289      -3.992
  WSF200               JUNCTION      0.00   440.94     0  03:39           0         4.8       0.008
  YS02001580           JUNCTION      0.00    86.65     0  01:36           0     0.00414       1.347
  YS02001583           JUNCTION      0.00   148.14     0  01:36           0      0.0154      -4.150
  YS02001586           JUNCTION   1483.22  1483.22     0  01:52         3.2        3.21       0.028
  YS02001590           JUNCTION      0.00   331.06     0  01:45           0        1.78      -0.024
  YS02001593           JUNCTION      0.00   333.85     0  01:45           0        1.78      -0.006
  YS02001596           JUNCTION      0.00   319.18     0  01:45           0        1.78      -0.013
  YS02001600           JUNCTION      0.00   319.07     0  01:45           0        1.78      -0.001
  YS02001601           JUNCTION   2445.62  2763.12     0  01:50        4.12        5.89      -0.008
  YS02001602           JUNCTION      0.00   508.86     0  01:35           0        2.77       0.005
  YS02001605           JUNCTION      0.00   509.10     0  01:35           0        2.56       0.007
  YS02001607           JUNCTION      0.00   509.30     0  01:35           0        2.56       0.064
  YS02001610           JUNCTION      0.00   955.58     0  01:54           0        3.38       0.051
  YS02001613           JUNCTION      0.00   619.52     0  01:53           0        2.55       0.037
  YS02001616           JUNCTION      0.00   619.19     0  01:53           0        2.55       0.016
  YS02001619           JUNCTION   2565.48  2565.48     0  01:51        5.01        6.74      -0.009
  YS02001622           JUNCTION      0.00  1054.36     0  01:52           0        5.41      -0.005
  YS02001625           JUNCTION      0.00  1505.55     0  01:56           0        5.97       0.162
  YS02001629           JUNCTION      0.00  1048.47     0  01:50           0        4.21      -0.005
  YS02001633           JUNCTION   1893.74  1893.74     0  01:50        3.14        6.44       0.050
  YS02001641           JUNCTION      0.00  1392.53     0  01:39           0        5.54       0.048
  YS02001644           JUNCTION   1615.80  3129.86     0  01:50         2.6        8.36       0.027
  YS02001647           JUNCTION      0.00  1785.60     0  01:39           0        6.36       0.002
  YS02001649           JUNCTION      0.00  2056.96     0  01:39           0        8.68       0.003
  YS02001652           JUNCTION      0.00  1632.97     0  01:50           0        2.54      -0.046
  YS02001655           JUNCTION      0.15  1632.93     0  01:50     0.00443        2.53      -0.058
  YS02001658           JUNCTION      0.00  1632.41     0  01:50           0        2.54      -0.054
  YS02001661           JUNCTION      0.00  1632.24     0  01:50           0        2.54       0.001
  YS02001664           JUNCTION   1632.37  1632.37     0  01:50        2.53        2.53      -0.009
  YS02001745           JUNCTION    960.35   960.35     0  01:49        1.42        1.43       0.127
  YS02001748           JUNCTION      0.04   965.91     0  01:49      0.0013        1.43      -0.193
  YS02001751           JUNCTION      0.01   967.44     0  01:49    0.000317        1.42       0.011
  YS02001754           JUNCTION      0.26   968.93     0  01:49     0.00749        1.43      -0.079
  YS02001757           JUNCTION      0.00  3429.37     0  01:43           0        13.9       0.031
  YS02001759           JUNCTION   1404.26  1470.03     0  01:48        2.07        3.99      -0.015
  YS02001762           JUNCTION      0.00   771.27     0  01:43           0        1.91      -0.003
  YS02001765           JUNCTION      0.00   771.39     0  01:43           0        1.91      -0.016
  YS02001767           JUNCTION      0.54   771.59     0  01:43      0.0154        1.91      -0.006
  YS02001770           JUNCTION   1951.60  1976.38     0  01:50        3.02        3.07      -0.038
  YS02001774           JUNCTION      0.00   852.53     0  01:52           0       0.854       0.102
  YS02001779           JUNCTION      0.01   851.97     0  01:56    0.000144       0.805      -0.068
  YS02001783           JUNCTION      0.00  1152.53     0  02:13           0        2.92       0.005
  YS02001784           JUNCTION      1.06  1153.93     0  02:13      0.0305        2.95       0.018
  YS02001786           JUNCTION      0.06  1153.92     0  02:13     0.00162        2.95       0.021
  YS02001788           JUNCTION      0.07  1153.93     0  02:15     0.00204        2.95       0.011
  YS02001790           JUNCTION      0.15  1164.56     0  02:14     0.00446        2.95       0.023
  YS02001791           JUNCTION      0.00  1275.45     0  02:16           0        2.95      -0.017
  YS02001793           JUNCTION      0.00  1235.78     0  02:14           0        2.95       0.004
  YS02001882           JUNCTION      0.00    56.61     0  02:10           0      0.0125       5.609
  YS02001884           JUNCTION      0.00    81.69     0  02:09           0      0.0482       5.424
  YS02001887           JUNCTION    536.45   536.45     0  02:13       0.746       0.779       0.577
  YS02001890           JUNCTION      0.00   536.87     0  02:13           0       0.738       0.695
  YS02001895           JUNCTION      0.00   506.72     0  02:14           0       0.728       0.188
  YS02001898           JUNCTION      0.00   507.24     0  02:14           0       0.726       0.046
  YS02001901           JUNCTION      0.00   506.55     0  02:14           0       0.729       0.444
  YS02001904           JUNCTION      0.00   506.51     0  02:14           0       0.733       0.386
  YS02001907           JUNCTION      0.00  1507.95     0  02:13           0        2.23       0.830
  YS02001910           JUNCTION      0.00  1014.13     0  02:13           0        1.51       0.476
  YS02001915           JUNCTION    566.99  1014.36     0  02:13       0.912        1.55       0.097
  YS02001918           JUNCTION      0.00   453.52     0  02:13           0       0.663       0.019
  YS02001920           JUNCTION      2.87   452.97     0  02:13      0.0827       0.646       0.122
  YS02001923           JUNCTION      0.04   416.16     0  02:12     0.00109       0.548      -0.163
  YS02001926           JUNCTION      0.05   643.49     0  02:12      0.0015       0.528      -0.025
  YS02001929           JUNCTION    292.18   448.46     0  02:11       0.513       0.516      -0.037
  YS02006553           JUNCTION      0.00   798.46     0  02:22           0        1.93       0.632
  YS02006556           JUNCTION      0.00   799.05     0  02:22           0        1.94       0.424
  YS02006558           JUNCTION    684.26  1162.58     0  02:11        1.03        2.94       0.127
  YS02006561           JUNCTION      0.00  1160.84     0  02:11           0        2.92      -0.001
  YS02163301           JUNCTION      0.00  1047.44     0  01:50           0        4.21       0.029
  YS02163601           JUNCTION      0.11  1396.80     0  01:39     0.00317        5.54       0.086
  YS02164001           JUNCTION      0.00  1396.06     0  01:39           0        5.54       0.036
  CC-1                 OUTFALL       0.00   683.00     0  00:31           0        5.79       0.000
  CC-2                 OUTFALL       0.00   683.00     0  00:20           0        4.74       0.000
  JK-1                 OUTFALL       0.00  1000.00     0  00:21           0        1.04       0.000
  JK-2                 OUTFALL       0.00  1000.00     0  00:05           0        1.73       0.000
  WSC                  OUTFALL       0.00   454.74     0  03:43           0        5.32       0.000
  CC-storage           STORAGE       0.00  3430.04     0  01:43           0        16.1      -0.199
  JK-storage           STORAGE       0.00  1232.41     0  02:14           0         3.1      -0.504
  
  
  **********************
  Node Surcharge Summary
  **********************
  
  Surcharging occurs when water rises above the top of the highest conduit.
  ---------------------------------------------------------------------
                                               Max. Height   Min. Depth
                                   Hours       Above Crown    Below Rim
  Node                 Type      Surcharged         Meters       Meters
  ---------------------------------------------------------------------
  WS02006109           JUNCTION        2.01          0.200        1.620
  WS02006110           JUNCTION        0.04          0.070        1.780
  WS02006111           JUNCTION        0.01          0.087        1.783
  WS02006112           JUNCTION        0.02          1.680        0.000
  WS02006113           JUNCTION        0.01          0.600        1.330
  WS02006115           JUNCTION        0.01          0.642        1.608
  WS02006116           JUNCTION        0.01          0.000        2.290
  WS02006228           JUNCTION        2.00          0.246        1.954
  WS02006229           JUNCTION        2.01          0.286        2.164
  WS02006230           JUNCTION        0.03          0.139        1.431
  WS02006231           JUNCTION        0.07          0.365        1.165
  WS02006232           JUNCTION        2.04          0.581        0.899
  WS02006234           JUNCTION        0.23          0.640        0.600
  WS02006235           JUNCTION        2.01          0.733        0.557
  WS02006238           JUNCTION        2.03          0.772        0.658
  WS02006239           JUNCTION        2.00          0.752        0.538
  WS02006240           JUNCTION        2.01          0.747        0.643
  WS02006242           JUNCTION        2.08          0.775        0.045
  WS02006243           JUNCTION        2.00          0.648        0.122
  WS02006245           JUNCTION        1.99          0.583        0.267
  WS02006247           JUNCTION        2.00          0.527        0.233
  WS02006248           JUNCTION        1.98          0.380        0.000
  WS02006249           JUNCTION        1.98          0.390        0.000
  WS02006251           JUNCTION        0.09          0.208        0.972
  WS02006252           JUNCTION        2.55          1.100        0.000
  WS02006256           JUNCTION        5.50          2.050        0.000
  YS02001580           JUNCTION        1.04          0.450        0.000
  YS02001583           JUNCTION        1.05          0.500        0.000
  YS02001586           JUNCTION        1.25          0.510        0.000
  YS02001590           JUNCTION        1.35          0.750        0.000
  YS02001593           JUNCTION        1.35          0.840        0.000
  YS02001596           JUNCTION        1.50          1.024        0.046
  YS02001600           JUNCTION        1.62          1.190        0.000
  YS02001601           JUNCTION        1.84          1.440        0.000
  YS02001602           JUNCTION        1.77          1.270        0.000
  YS02001605           JUNCTION        1.74          1.180        0.000
  YS02001607           JUNCTION        1.38          0.680        0.000
  YS02001610           JUNCTION        1.42          0.680        0.000
  YS02001613           JUNCTION        1.37          0.700        0.000
  YS02001616           JUNCTION        1.32          0.610        0.000
  YS02001619           JUNCTION        1.30          0.610        0.000
  YS02001622           JUNCTION        1.31          0.620        0.000
  YS02001625           JUNCTION        1.51          0.780        0.000
  YS02001629           JUNCTION        1.24          0.470        0.000
  YS02001633           JUNCTION        1.54          1.060        0.000
  YS02001641           JUNCTION        1.50          1.100        0.000
  YS02001644           JUNCTION        1.48          0.920        0.000
  YS02001647           JUNCTION        1.25          0.900        0.000
  YS02001649           JUNCTION        1.39          1.050        0.000
  YS02001652           JUNCTION        1.18          1.130        0.000
  YS02001655           JUNCTION        0.93          1.200        0.000
  YS02001658           JUNCTION        0.52          1.192        0.108
  YS02001661           JUNCTION        0.24          0.609        0.781
  YS02001664           JUNCTION        0.07          0.329        0.981
  YS02001745           JUNCTION        0.05          0.126        1.224
  YS02001748           JUNCTION        0.42          1.190        0.000
  YS02001751           JUNCTION        0.78          1.198        0.002
  YS02001754           JUNCTION        1.09          1.083        0.067
  YS02001757           JUNCTION        1.45          1.210        0.000
  YS02001759           JUNCTION        1.38          1.210        0.000
  YS02001762           JUNCTION        1.35          1.150        0.000
  YS02001765           JUNCTION        1.32          1.063        0.037
  YS02001767           JUNCTION        1.27          1.017        0.013
  YS02001770           JUNCTION        1.23          0.920        0.000
  YS02001774           JUNCTION        1.34          1.050        0.000
  YS02001779           JUNCTION        1.06          0.680        0.000
  YS02001783           JUNCTION        0.32          0.493        1.107
  YS02001784           JUNCTION        0.30          0.365        1.125
  YS02001786           JUNCTION        0.22          0.108        1.322
  YS02001882           JUNCTION        0.28          0.686        0.144
  YS02001884           JUNCTION        0.29          0.715        0.155
  YS02001887           JUNCTION        0.32          0.781        0.169
  YS02001890           JUNCTION        0.33          0.760        0.000
  YS02001895           JUNCTION        0.27          0.573        0.177
  YS02001898           JUNCTION        0.26          0.546        0.194
  YS02001901           JUNCTION        0.31          0.684        0.186
  YS02001904           JUNCTION        0.30          0.641        0.209
  YS02001907           JUNCTION        0.51          0.950        0.000
  YS02001910           JUNCTION        0.35          1.029        0.071
  YS02001915           JUNCTION        0.28          0.973        0.027
  YS02001918           JUNCTION        0.21          0.810        0.000
  YS02001920           JUNCTION        0.22          1.140        0.000
  YS02001923           JUNCTION        0.01          0.820        0.000
  YS02001926           JUNCTION        0.01          0.900        0.000
  YS02001929           JUNCTION        0.01          0.780        0.000
  YS02006553           JUNCTION        0.52          0.979        0.211
  YS02006556           JUNCTION        0.43          0.922        0.428
  YS02006558           JUNCTION        0.42          0.906        0.494
  YS02006561           JUNCTION        0.17          0.191        0.959
  YS02163301           JUNCTION        1.52          1.030        0.000
  YS02163601           JUNCTION        1.57          1.080        0.000
  YS02164001           JUNCTION        1.50          1.100        0.000
  
  
  *********************
  Node Flooding Summary
  *********************
  
  Flooding refers to all water that overflows a node, whether it ponds or not.
  --------------------------------------------------------------------------
                                                             Total   Maximum
                                 Maximum   Time of Max       Flood    Ponded
                        Hours       Rate    Occurrence      Volume     Depth
  Node                 Flooded       LPS   days hr:min    10^6 ltr    Meters
  --------------------------------------------------------------------------
  WS02006112              0.01   1547.89      0  00:00       0.047     0.000
  WS02006248              0.01     25.31      0  01:53       0.000     0.000
  WS02006249              0.07     83.82      0  01:53       0.014     0.000
  WS02006252              0.01      0.91      0  01:39       0.000     0.000
  WS02006256              0.26    288.76      0  03:54       0.085     0.000
  YS02001580              0.01     72.92      0  01:36       0.000     0.000
  YS02001583              0.01     85.70      0  01:36       0.000     0.000
  YS02001586              0.87   1165.83      0  01:52       1.425     0.000
  YS02001590              0.01      1.21      0  01:45       0.000     0.000
  YS02001593              0.01      0.14      0  02:27       0.000     0.000
  YS02001600              0.01      4.62      0  01:45       0.000     0.000
  YS02001601              1.15   2365.13      0  01:50       3.120     0.000
  YS02001602              1.04     62.27      0  02:16       0.212     0.000
  YS02001605              0.01      4.79      0  02:27       0.000     0.000
  YS02001607              0.01     50.44      0  02:27       0.000     0.000
  YS02001610              0.91    954.86      0  01:54       1.648     0.000
  YS02001613              0.01     31.50      0  02:27       0.000     0.000
  YS02001616              0.08    113.84      0  01:45       0.003     0.000
  YS02001619              0.27    898.23      0  01:51       0.499     0.000
  YS02001622              0.01     35.41      0  01:45       0.000     0.000
  YS02001625              0.91   1505.25      0  01:57       2.660     0.000
  YS02001629              0.32    611.21      0  01:50       0.346     0.000
  YS02001633              0.01     62.21      0  01:36       0.000     0.000
  YS02001641              0.01      0.50      0  02:27       0.000     0.000
  YS02001644              0.43   3129.80      0  01:50       2.204     0.000
  YS02001647              0.01      0.51      0  02:27       0.000     0.000
  YS02001649              0.01     24.49      0  01:47       0.000     0.000
  YS02001652              0.01     56.06      0  01:41       0.000     0.000
  YS02001655              0.01    244.90      0  01:41       0.000     0.000
  YS02001748              0.01    157.86      0  01:43       0.000     0.000
  YS02001757              0.01      0.87      0  01:45       0.000     0.000
  YS02001759              0.01      3.42      0  01:45       0.000     0.000
  YS02001762              0.01      0.68      0  01:45       0.000     0.000
  YS02001770              0.18   1126.73      0  01:50       0.352     0.000
  YS02001774              0.01      0.42      0  01:45       0.000     0.000
  YS02001779              0.39    851.60      0  01:56       0.785     0.000
  YS02001890              0.05     45.32      0  02:13       0.005     0.000
  YS02001907              0.16   1041.09      0  02:13       0.291     0.000
  YS02001918              0.01    193.27      0  02:12       0.002     0.000
  YS02001920              0.01     52.93      0  02:12       0.000     0.000
  YS02001923              0.01    141.87      0  02:12       0.001     0.000
  YS02001926              0.01    190.99      0  02:12       0.001     0.000
  YS02001929              0.01     69.76      0  02:12       0.000     0.000
  YS02163301              0.01      0.28      0  02:27       0.000     0.000
  YS02163601              0.01     27.40      0  01:45       0.000     0.000
  YS02164001              0.01      2.02      0  02:07       0.000     0.000
  
  
  **********************
  Storage Volume Summary
  **********************
  
  --------------------------------------------------------------------------------------------------
                         Average     Avg  Evap Exfil       Maximum     Max    Time of Max    Maximum
                          Volume    Pcnt  Pcnt  Pcnt        Volume    Pcnt     Occurrence    Outflow
  Storage Unit           1000 m3    Full  Loss  Loss       1000 m3    Full    days hr:min        LPS
  --------------------------------------------------------------------------------------------------
  CC-storage               2.558      40     0     0         5.354      84       0  02:31    1766.00
  JK-storage               0.058      20     0     0         0.151      52       0  00:00    2000.00
  
  
  ***********************
  Outfall Loading Summary
  ***********************
  
  -----------------------------------------------------------
                         Flow       Avg       Max       Total
                         Freq      Flow      Flow      Volume
  Outfall Node           Pcnt       LPS       LPS    10^6 ltr
  -----------------------------------------------------------
  CC-1                  36.70    683.00    683.00       5.792
  CC-2                  33.76    683.00    683.00       4.741
  JK-1                   4.68   1000.00   1000.00       1.041
  JK-2                   7.42   1000.00   1000.00       1.734
  WSC                   99.99    223.95    454.74       5.324
  -----------------------------------------------------------
  System                36.51   3589.95    454.74      18.632
  
  
  ********************
  Link Flow Summary
  ********************
  
  -----------------------------------------------------------------------------
                                 Maximum  Time of Max   Maximum    Max/    Max/
                                  |Flow|   Occurrence   |Veloc|    Full    Full
  Link                 Type          LPS  days hr:min     m/sec    Flow   Depth
  -----------------------------------------------------------------------------
  1                    CONDUIT    454.74     0  03:43      2.67    0.16    0.27
  WS02003060WS02003069 CONDUIT    459.22     0  03:40      1.58    0.18    0.30
  WS02003066WSF200     CONDUIT    440.94     0  03:39      2.71    0.07    0.20
  WS02003067WS02003066 CONDUIT    441.05     0  03:39      1.08    0.14    0.39
  WS02003069WS02003072 CONDUIT    455.93     0  03:41      1.29    0.22    0.35
  WS02003072WS02003073 CONDUIT    454.32     0  03:42      1.34    0.98    0.34
  WS02004401WS02004402 CONDUIT   1210.03     0  00:01      2.53    1.45    0.81
  WS02004402WS02004403 CONDUIT    817.89     0  00:01      2.15    1.18    0.84
  WS02004403WS02004404 CONDUIT    816.37     0  00:01      1.91    0.59    0.88
  WS02004404WS02004405 CONDUIT    788.99     0  00:01      2.33    7.73    0.92
  WS02004405WS02004406 CONDUIT    724.33     0  00:02      2.23    1.43    0.92
  WS02004406WS02004407 CONDUIT    470.60     0  01:58      0.96    0.21    0.60
  WS02004407WS02004409 CONDUIT    468.49     0  01:58      1.93    0.17    0.43
  WS02004409WS02004410 CONDUIT    454.42     0  03:38      1.29    0.59    0.60
  WS02004410WS02004411 CONDUIT    450.88     0  03:38      1.20    0.62    0.62
  WS02004411WS02004412 CONDUIT    449.25     0  03:39      1.14    0.64    0.63
  WS02004412WS02004413 CONDUIT    446.48     0  03:39      1.15    0.30    0.72
  WS02004413WS02003067 CONDUIT    440.08     0  03:50      1.00    0.19    0.55
  WS02006109WS02006110 CONDUIT   1306.78     0  00:00      3.14    2.51    1.00
  WS02006110WS02006113 CONDUIT    549.17     0  01:52      1.32    0.50    1.00
  WS02006111WS02006112 CONDUIT   2307.30     0  00:00      9.18    1.10    0.91
  WS02006112WS02006115 CONDUIT    898.70     0  00:00      1.15    0.53    1.00
  WS02006113WS02006111 CONDUIT   1176.04     0  00:00      2.46    1.41    1.00
  WS02006115WS02006116 CONDUIT   1144.85     0  00:01      1.76    1.47    1.00
  WS02006116WS02004401 CONDUIT   1697.33     0  00:00      3.01    2.34    0.78
  WS02006228WS02006109 CONDUIT    545.75     0  01:52      1.40    2.38    1.00
  WS02006229WS02006228 CONDUIT    545.63     0  01:52      1.25    1.81    1.00
  WS02006230WS02006229 CONDUIT    545.28     0  01:52      1.42   12.13    1.00
  WS02006231WS02006230 CONDUIT    585.07     0  01:53      1.56    8.87    1.00
  WS02006232WS02006231 CONDUIT    580.22     0  01:53      1.51    1.22    1.00
  WS02006234WS02006232 CONDUIT    576.22     0  01:53      1.50    1.17    1.00
  WS02006235WS02006234 CONDUIT    566.42     0  01:55      1.59    5.98    1.00
  WS02006238WS02006235 CONDUIT    427.26     0  03:37      1.48    0.95    1.00
  WS02006239WS02006238 CONDUIT    421.27     0  01:56      1.09    1.35    1.00
  WS02006240WS02006239 CONDUIT    421.96     0  01:56      1.15    1.33    1.00
  WS02006242WS02006240 CONDUIT    420.45     0  03:45      1.09    1.67    1.00
  WS02006243WS02006242 CONDUIT    421.61     0  03:45      1.33    0.90    1.00
  WS02006245WS02006243 CONDUIT    423.31     0  03:45      1.46    1.25    1.00
  WS02006247WS02006245 CONDUIT    423.25     0  03:45      1.46    3.36    1.00
  WS02006248WS02006247 CONDUIT    424.60     0  03:45      1.50    0.92    1.00
  WS02006249WS02006248 CONDUIT    426.19     0  03:45      1.44    2.33    1.00
  WS02006251WS02006249 CONDUIT    793.83     0  00:00      2.76    2.29    1.00
  WS02006252WS02006251 CONDUIT    453.14     0  00:00     23.92    1.66    1.00
  WS02006256WS02006235 CONDUIT    288.76     0  00:01      4.23    3.06    1.00
  WSF200WS02003060     CONDUIT    443.55     0  03:40      1.96    0.10    0.25
  YS02001580YS02001583 CONDUIT     86.65     0  01:36      0.59    0.34    1.00
  YS02001583YS02001586 CONDUIT    148.14     0  01:36      0.61    0.22    1.00
  YS02001586YS02001590 CONDUIT    331.06     0  01:45      1.26    0.58    1.00
  YS02001590YS02001593 CONDUIT    333.85     0  01:45      1.18    2.10    1.00
  YS02001593YS02001596 CONDUIT    319.18     0  01:45      1.69    0.50    1.00
  YS02001596YS02001600 CONDUIT    319.07     0  01:45      1.24    0.62    1.00
  YS02001600YS02001601 CONDUIT    318.88     0  01:45      1.13    0.55    1.00
  YS02001601YS02001602 CONDUIT    508.86     0  01:35      1.80    1.84    1.00
  YS02001602YS02001605 CONDUIT    509.10     0  01:35      1.80   10.77    1.00
  YS02001605YS02001607 CONDUIT    509.30     0  01:35      1.80    2.79    1.00
  YS02001607YS02001610 CONDUIT    515.11     0  01:35      0.66    0.49    1.00
  YS02001610YS02001613 CONDUIT    619.27     0  01:53      0.79    0.71    1.00
  YS02001613YS02001616 CONDUIT    619.52     0  01:53      0.79    0.53    1.00
  YS02001616YS02001619 CONDUIT    619.19     0  01:53      0.79    1.08    1.00
  YS02001619YS02001622 CONDUIT   1054.36     0  01:52      1.34    1.55    1.00
  YS02001622YS02001625 CONDUIT   1053.97     0  01:51      1.34    0.56    1.00
  YS02001625YS02001629 CONDUIT    933.01     0  01:39      1.19    0.44    1.00
  YS02001629YS02163301 CONDUIT   1048.47     0  01:50      1.33    1.29    1.00
  YS02001633YS02163601 CONDUIT   1396.69     0  01:39      1.78    1.47    1.00
  YS02001641YS02001644 CONDUIT   1391.28     0  01:39      1.77    4.50    1.00
  YS02001644YS02001647 CONDUIT   1785.60     0  01:39      2.28    1.05    1.00
  YS02001647YS02001649 CONDUIT   1773.79     0  01:40      2.34    0.94    1.00
  YS02001649YS02001757 CONDUIT   2011.92     0  01:40      2.60    1.22    1.00
  YS02001652YS02001649 CONDUIT   1633.94     0  01:50      2.08    0.81    1.00
  YS02001655YS02001652 CONDUIT   1632.97     0  01:50      2.08    0.79    1.00
  YS02001658YS02001655 CONDUIT   1632.78     0  01:50      2.08    0.69    1.00
  YS02001661YS02001658 CONDUIT   1632.41     0  01:50      2.31    0.64    1.00
  YS02001664YS02001661 CONDUIT   1632.24     0  01:50      2.31    0.51    1.00
  YS02001745YS02001748 CONDUIT    965.86     0  01:49      2.13    0.37    1.00
  YS02001748YS02001751 CONDUIT    967.43     0  01:49      1.66    0.49    1.00
  YS02001751YS02001754 CONDUIT    968.67     0  01:49      1.41    0.47    1.00
  YS02001754YS02001757 CONDUIT    970.03     0  01:49      1.24    0.39    1.00
  YS02001757CaochengTiaoxuchi CONDUIT   3430.04     0  01:43      4.37    1.48    1.00
  YS02001759YS02001757 CONDUIT   1469.66     0  01:48      1.87    1.04    1.00
  YS02001762YS02001759 CONDUIT    771.56     0  01:43      0.98    0.89    1.00
  YS02001765YS02001762 CONDUIT    771.27     0  01:43      0.98    0.72    1.00
  YS02001767YS02001765 CONDUIT    771.39     0  01:43      0.98    0.97    1.00
  YS02001770YS02001767 CONDUIT    771.05     0  01:43      0.98    3.05    1.00
  YS02001774YS02001770 CONDUIT    852.53     0  01:52      1.09    0.54    1.00
  YS02001779YS02001774 CONDUIT    851.97     0  01:56      1.08    0.43    1.00
  YS02001783YS02001784 CONDUIT   1152.87     0  02:13      2.29    1.59    1.00
  YS02001784YS02001785 CONDUIT   1153.86     0  02:13      2.30    2.69    1.00
  YS02001786YS02001788 CONDUIT   1153.86     0  02:15      2.46    2.22    0.89
  YS02001788YS02001790 CONDUIT   1164.40     0  02:14      2.70    0.86    0.84
  YS02001790YS02001791 CONDUIT   1275.45     0  02:16      3.41    1.39    0.70
  YS02001791YS02001793 CONDUIT   1235.78     0  02:14      6.75    0.53    0.40
  YS02001793JiankangQianchi CONDUIT   1232.41     0  02:14      2.48    0.10    0.61
  YS02001882YS02001884 CONDUIT     56.61     0  02:10      0.11    0.06    1.00
  YS02001884YS02001887 CONDUIT     81.69     0  02:09      0.10    0.11    1.00
  YS02001887YS02001890 CONDUIT    536.87     0  02:13      0.68    0.92    1.00
  YS02001890YS02001895 CONDUIT    506.72     0  02:14      0.65    0.24    1.00
  YS02001895YS02001898 CONDUIT    507.24     0  02:14      0.65    0.88    1.00
  YS02001898YS02001901 CONDUIT    506.55     0  02:14      0.64    0.33    1.00
  YS02001901YS02001904 CONDUIT    506.51     0  02:14      0.64    0.79    1.00
  YS02001904YS02001907 CONDUIT    506.75     0  02:14      0.65    0.18    1.00
  YS02001907YS02006553 CONDUIT    798.46     0  02:22      0.89    0.94    1.00
  YS02001910YS02001907 CONDUIT   1015.23     0  02:13      1.29    0.57    1.00
  YS02001915YS02001910 CONDUIT   1014.13     0  02:13      1.29    0.50    1.00
  YS02001918YS02001915 CONDUIT    454.94     0  02:13      0.58    0.25    1.00
  YS02001920YS02001918 CONDUIT    453.52     0  02:13      0.65    0.44    1.00
  YS02001923YS02001920 CONDUIT    450.10     0  02:13      0.72    0.20    1.00
  YS02001926YS02001923 CONDUIT    416.12     0  02:12      0.98    0.59    1.00
  YS02001929YS02001926 CONDUIT    412.40     0  02:12      1.15    0.20    1.00
  YS02006553YS02006556 CONDUIT    799.05     0  02:22      1.02    0.68    1.00
  YS02006556YS02006558 CONDUIT    799.25     0  02:22      1.02    0.63    1.00
  YS02006558YS02006561 CONDUIT   1160.84     0  02:11      4.11    2.57    1.00
  YS02006561YS02001783 CONDUIT   1152.53     0  02:13      2.29    0.60    1.00
  YS02163301YS02001633 CONDUIT   1047.44     0  01:50      1.33    0.98    1.00
  YS02163601YS02164001 CONDUIT   1396.06     0  01:39      1.78    1.24    1.00
  YS02164001YS02001641 CONDUIT   1392.53     0  01:39      1.77    1.90    1.00
  CC-R1                PUMP       683.00     0  00:31              1.00
  CC-R2                PUMP       683.00     0  00:20              1.00
  CC-S1                PUMP       200.00     0  00:00              1.00
  CC-S2                PUMP       200.00     0  00:00              1.00
  JK-R1                PUMP      1000.00     0  00:21              1.00
  JK-R2                PUMP      1000.00     0  00:05              1.00
  JK-S                 PUMP       300.00     0  00:00              1.00
  
  
  ***************************
  Flow Classification Summary
  ***************************
  
  -------------------------------------------------------------------------------------
                      Adjusted    ---------- Fraction of Time in Flow Class ---------- 
                       /Actual         Up    Down  Sub   Sup   Up    Down  Norm  Inlet 
  Conduit               Length    Dry  Dry   Dry   Crit  Crit  Crit  Crit  Ltd   Ctrl  
  -------------------------------------------------------------------------------------
  1                       1.00   0.00  0.00  0.00  0.00  1.00  0.00  0.00  0.44  0.00
  WS02003060WS02003069    1.00   0.00  0.00  0.00  0.96  0.04  0.00  0.00  0.65  0.00
  WS02003066WSF200        1.00   0.06  0.00  0.00  0.00  0.94  0.00  0.00  0.95  0.00
  WS02003067WS02003066    1.00   0.03  0.02  0.00  0.95  0.00  0.00  0.00  0.00  0.00
  WS02003069WS02003072    1.00   0.00  0.00  0.00  1.00  0.00  0.00  0.00  0.72  0.00
  WS02003072WS02003073    1.00   0.00  0.00  0.00  0.00  0.00  0.00  1.00  0.00  0.00
  WS02004401WS02004402    1.00   0.00  0.00  0.00  1.00  0.00  0.00  0.00  0.00  0.00
  WS02004402WS02004403    1.00   0.00  0.00  0.00  1.00  0.00  0.00  0.00  0.00  0.00
  WS02004403WS02004404    1.00   0.00  0.00  0.00  1.00  0.00  0.00  0.00  0.00  0.00
  WS02004404WS02004405    1.00   0.00  0.00  0.00  1.00  0.00  0.00  0.00  0.01  0.00
  WS02004405WS02004406    1.00   0.00  0.00  0.00  1.00  0.00  0.00  0.00  0.00  0.00
  WS02004406WS02004407    1.00   0.00  0.00  0.00  1.00  0.00  0.00  0.00  0.00  0.00
  WS02004407WS02004409    1.00   0.00  0.00  0.00  0.98  0.02  0.00  0.00  0.99  0.00
  WS02004409WS02004410    1.00   0.00  0.00  0.00  1.00  0.00  0.00  0.00  0.00  0.00
  WS02004410WS02004411    1.00   0.00  0.00  0.00  0.99  0.00  0.00  0.00  0.00  0.00
  WS02004411WS02004412    1.00   0.00  0.00  0.00  0.99  0.00  0.00  0.00  0.00  0.00
  WS02004412WS02004413    1.00   0.01  0.00  0.00  0.99  0.01  0.00  0.00  0.00  0.00
  WS02004413WS02003067    1.00   0.01  0.02  0.00  0.00  0.00  0.97  0.00  0.00  0.00
  WS02006109WS02006110    1.00   0.00  0.00  0.00  1.00  0.00  0.00  0.00  0.00  0.00
  WS02006110WS02006113    1.00   0.00  0.00  0.00  1.00  0.00  0.00  0.00  0.00  0.00
  WS02006111WS02006112    1.00   0.00  0.00  0.00  1.00  0.00  0.00  0.00  1.00  0.00
  WS02006112WS02006115    1.00   0.00  0.00  0.00  1.00  0.00  0.00  0.00  0.00  0.00
  WS02006113WS02006111    1.00   0.00  0.00  0.00  0.00  1.00  0.00  0.00  0.18  0.00
  WS02006115WS02006116    1.00   0.00  0.00  0.00  1.00  0.00  0.00  0.00  0.00  0.00
  WS02006116WS02004401    1.00   0.00  0.00  0.00  1.00  0.00  0.00  0.00  0.00  0.00
  WS02006228WS02006109    1.00   0.00  0.00  0.00  1.00  0.00  0.00  0.00  0.00  0.00
  WS02006229WS02006228    1.00   0.00  0.00  0.00  1.00  0.00  0.00  0.00  0.00  0.00
  WS02006230WS02006229    1.00   0.00  0.00  0.00  1.00  0.00  0.00  0.00  0.03  0.00
  WS02006231WS02006230    1.00   0.00  0.00  0.00  0.36  0.00  0.63  0.00  0.00  0.00
  WS02006232WS02006231    1.00   0.00  0.00  0.00  1.00  0.00  0.00  0.00  0.00  0.00
  WS02006234WS02006232    1.00   0.00  0.00  0.00  1.00  0.00  0.00  0.00  0.25  0.00
  WS02006235WS02006234    1.00   0.00  0.00  0.00  0.86  0.00  0.14  0.00  0.00  0.00
  WS02006238WS02006235    1.00   0.00  0.00  0.00  1.00  0.00  0.00  0.00  0.00  0.00
  WS02006239WS02006238    1.00   0.00  0.00  0.00  1.00  0.00  0.00  0.00  0.35  0.00
  WS02006240WS02006239    1.00   0.00  0.00  0.00  0.82  0.00  0.00  0.18  0.02  0.00
  WS02006242WS02006240    1.00   0.00  0.00  0.00  0.99  0.00  0.01  0.00  0.00  0.00
  WS02006243WS02006242    1.00   0.00  0.00  0.00  1.00  0.00  0.00  0.00  0.50  0.00
  WS02006245WS02006243    1.00   0.00  0.00  0.00  0.90  0.00  0.00  0.09  0.01  0.00
  WS02006247WS02006245    1.00   0.00  0.00  0.00  0.98  0.00  0.00  0.02  0.00  0.00
  WS02006248WS02006247    1.00   0.00  0.00  0.00  0.99  0.00  0.00  0.01  0.48  0.00
  WS02006249WS02006248    1.00   0.00  0.00  0.00  0.75  0.00  0.25  0.00  0.00  0.00
  WS02006251WS02006249    1.00   0.00  0.00  0.00  1.00  0.00  0.00  0.00  0.49  0.00
  WS02006252WS02006251    1.00   0.00  0.26  0.00  0.01  0.00  0.73  0.00  0.00  0.00
  WS02006256WS02006235    1.00   0.00  0.00  0.00  1.00  0.00  0.00  0.00  0.00  0.00
  WSF200WS02003060        1.00   0.00  0.06  0.00  0.22  0.72  0.00  0.00  0.60  0.00
  YS02001580YS02001583    1.00   0.29  0.39  0.00  0.33  0.00  0.00  0.00  0.64  0.00
  YS02001583YS02001586    1.00   0.35  0.23  0.00  0.42  0.00  0.00  0.00  0.64  0.00
  YS02001586YS02001590    1.00   0.21  0.00  0.00  0.59  0.02  0.00  0.18  0.29  0.00
  YS02001590YS02001593    1.00   0.21  0.00  0.00  0.26  0.00  0.53  0.00  0.00  0.00
  YS02001593YS02001596    1.00   0.21  0.00  0.00  0.29  0.01  0.00  0.48  0.01  0.00
  YS02001596YS02001600    1.00   0.21  0.00  0.00  0.34  0.01  0.00  0.44  0.03  0.00
  YS02001600YS02001601    1.00   0.21  0.00  0.00  0.79  0.00  0.00  0.00  0.58  0.00
  YS02001601YS02001602    1.00   0.21  0.00  0.00  0.79  0.00  0.00  0.00  0.00  0.00
  YS02001602YS02001605    1.00   0.21  0.00  0.00  0.79  0.00  0.00  0.00  0.00  0.00
  YS02001605YS02001607    1.00   0.21  0.00  0.00  0.79  0.00  0.00  0.00  0.00  0.00
  YS02001607YS02001610    1.00   0.21  0.00  0.00  0.79  0.00  0.00  0.00  0.01  0.00
  YS02001610YS02001613    1.00   0.21  0.00  0.00  0.79  0.00  0.00  0.00  0.00  0.00
  YS02001613YS02001616    1.00   0.21  0.00  0.00  0.79  0.00  0.00  0.00  0.00  0.00
  YS02001616YS02001619    1.00   0.21  0.00  0.00  0.79  0.00  0.00  0.00  0.00  0.00
  YS02001619YS02001622    1.00   0.21  0.00  0.00  0.79  0.00  0.00  0.00  0.32  0.00
  YS02001622YS02001625    1.00   0.21  0.00  0.00  0.79  0.00  0.00  0.00  0.02  0.00
  YS02001625YS02001629    1.00   0.21  0.02  0.00  0.32  0.00  0.45  0.00  0.00  0.00
  YS02001629YS02163301    1.00   0.22  0.00  0.00  0.78  0.00  0.00  0.00  0.00  0.00
  YS02001633YS02163601    1.00   0.00  0.01  0.00  0.99  0.00  0.00  0.00  0.14  0.00
  YS02001641YS02001644    1.00   0.00  0.00  0.00  1.00  0.00  0.00  0.00  0.00  0.00
  YS02001644YS02001647    1.00   0.00  0.22  0.00  0.78  0.00  0.00  0.00  0.00  0.00
  YS02001647YS02001649    1.00   0.00  0.22  0.00  0.54  0.24  0.00  0.00  0.59  0.00
  YS02001649YS02001757    1.00   0.00  0.00  0.00  0.76  0.24  0.00  0.00  0.43  0.00
  YS02001652YS02001649    1.00   0.00  0.00  0.00  0.99  0.01  0.00  0.00  0.69  0.00
  YS02001655YS02001652    1.00   0.00  0.00  0.00  0.34  0.02  0.00  0.64  0.04  0.00
  YS02001658YS02001655    1.00   0.00  0.21  0.00  0.65  0.14  0.00  0.00  0.61  0.00
  YS02001661YS02001658    1.00   0.21  0.00  0.00  0.43  0.36  0.00  0.00  0.65  0.00
  YS02001664YS02001661    1.00   0.21  0.00  0.00  0.65  0.14  0.00  0.00  0.81  0.00
  YS02001745YS02001748    1.00   0.00  0.00  0.00  0.23  0.01  0.00  0.77  0.05  0.00
  YS02001748YS02001751    1.00   0.00  0.00  0.00  0.87  0.13  0.00  0.00  0.73  0.00
  YS02001751YS02001754    1.00   0.00  0.00  0.00  0.31  0.01  0.00  0.68  0.03  0.00
  YS02001754YS02001757    1.00   0.00  0.00  0.00  1.00  0.00  0.00  0.00  0.74  0.00
  YS02001757CaochengTiaoxuchi    1.00   0.00  0.00  0.00  0.92  0.08  0.00  0.00  0.67  0.00
  YS02001759YS02001757    1.00   0.00  0.00  0.00  0.99  0.01  0.00  0.00  0.61  0.00
  YS02001762YS02001759    1.00   0.00  0.00  0.00  1.00  0.00  0.00  0.00  0.02  0.00
  YS02001765YS02001762    1.00   0.00  0.00  0.00  1.00  0.00  0.00  0.00  0.66  0.00
  YS02001767YS02001765    1.00   0.00  0.00  0.00  1.00  0.00  0.00  0.00  0.00  0.00
  YS02001770YS02001767    1.00   0.00  0.00  0.00  1.00  0.00  0.00  0.00  0.00  0.00
  YS02001774YS02001770    1.00   0.00  0.21  0.00  0.69  0.00  0.10  0.00  0.01  0.00
  YS02001779YS02001774    1.00   0.00  0.00  0.00  1.00  0.00  0.00  0.00  0.71  0.00
  YS02001783YS02001784    1.00   0.00  0.28  0.00  0.72  0.00  0.00  0.00  0.58  0.00
  YS02001784YS02001785    1.00   0.00  0.00  0.00  1.00  0.00  0.00  0.00  0.18  0.00
  YS02001786YS02001788    1.00   0.00  0.00  0.00  0.76  0.24  0.00  0.00  0.00  0.00
  YS02001788YS02001790    1.00   0.00  0.00  0.00  0.31  0.69  0.00  0.00  0.84  0.00
  YS02001790YS02001791    1.00   0.00  0.00  0.00  0.02  0.98  0.00  0.00  0.15  0.00
  YS02001791YS02001793    1.00   0.00  0.00  0.00  0.00  1.00  0.00  0.00  0.00  0.00
  YS02001793JiankangQianchi    1.00   0.00  0.00  0.00  0.97  0.03  0.00  0.00  1.00  0.00
  YS02001882YS02001884    1.00   0.23  0.01  0.00  0.77  0.00  0.00  0.00  0.00  0.00
  YS02001884YS02001887    1.00   0.16  0.04  0.00  0.80  0.00  0.00  0.00  0.00  0.00
  YS02001887YS02001890    1.00   0.00  0.00  0.00  0.92  0.00  0.07  0.00  0.00  0.00
  YS02001890YS02001895    1.00   0.00  0.24  0.00  0.76  0.00  0.00  0.00  0.00  0.00
  YS02001895YS02001898    1.00   0.24  0.00  0.00  0.72  0.00  0.04  0.00  0.00  0.00
  YS02001898YS02001901    1.00   0.24  0.00  0.00  0.76  0.00  0.00  0.00  0.02  0.00
  YS02001901YS02001904    1.00   0.24  0.00  0.00  0.76  0.00  0.00  0.00  0.00  0.00
  YS02001904YS02001907    1.00   0.00  0.24  0.00  0.76  0.00  0.00  0.00  0.00  0.00
  YS02001907YS02006553    1.00   0.00  0.05  0.00  0.95  0.00  0.00  0.00  0.00  0.00
  YS02001910YS02001907    1.00   0.00  0.00  0.00  0.93  0.01  0.00  0.06  0.12  0.00
  YS02001915YS02001910    1.00   0.00  0.00  0.00  0.94  0.06  0.00  0.00  0.17  0.00
  YS02001918YS02001915    1.00   0.00  0.00  0.00  0.95  0.05  0.00  0.00  0.79  0.00
  YS02001920YS02001918    1.00   0.00  0.00  0.00  1.00  0.00  0.00  0.00  0.01  0.00
  YS02001923YS02001920    1.00   0.00  0.00  0.00  1.00  0.00  0.00  0.00  0.95  0.00
  YS02001926YS02001923    1.00   0.00  0.17  0.00  0.05  0.00  0.78  0.00  0.00  0.00
  YS02001929YS02001926    1.00   0.00  0.21  0.00  0.79  0.00  0.00  0.00  0.84  0.00
  YS02006553YS02006556    1.00   0.01  0.00  0.00  0.99  0.00  0.00  0.00  0.03  0.00
  YS02006556YS02006558    1.00   0.00  0.00  0.00  1.00  0.00  0.00  0.00  0.00  0.00
  YS02006558YS02006561    1.00   0.28  0.00  0.00  0.04  0.68  0.00  0.00  0.18  0.00
  YS02006561YS02001783    1.00   0.28  0.00  0.00  0.08  0.65  0.00  0.00  0.72  0.00
  YS02163301YS02001633    1.00   0.00  0.22  0.00  0.78  0.00  0.00  0.00  0.00  0.00
  YS02163601YS02164001    1.00   0.00  0.18  0.00  0.82  0.00  0.00  0.00  0.00  0.00
  YS02164001YS02001641    1.00   0.01  0.17  0.00  0.82  0.00  0.00  0.00  0.05  0.00
  
  
  *************************
  Conduit Surcharge Summary
  *************************
  
  ----------------------------------------------------------------------------
                                                           Hours        Hours 
                         --------- Hours Full --------   Above Full   Capacity
  Conduit                Both Ends  Upstream  Dnstream   Normal Flow   Limited
  ----------------------------------------------------------------------------
  WS02004401WS02004402        0.01      0.01      0.01      0.01         0.01
  WS02004402WS02004403        0.01      0.01      0.01      0.01         0.01
  WS02004404WS02004405        0.01      0.01      0.01      3.82         0.01
  WS02004405WS02004406        0.01      0.01      0.01      0.01         0.01
  WS02006109WS02006110        0.03      0.04      2.02      0.05         0.01
  WS02006110WS02006113        0.01      0.01      2.03      0.01         0.01
  WS02006111WS02006112        0.01      0.01      2.36      0.01         0.01
  WS02006112WS02006115        0.01      0.01      0.01      0.01         0.01
  WS02006113WS02006111        0.01      0.01      0.01      0.01         0.01
  WS02006115WS02006116        0.01      0.01      0.01      0.01         0.01
  WS02006116WS02004401        0.01      0.01      0.01      0.01         0.01
  WS02006228WS02006109        2.01      2.02      2.01      2.72         2.01
  WS02006229WS02006228        2.00      2.01      2.00      2.39         1.99
  WS02006230WS02006229        2.14      2.30      2.14      4.24         2.14
  WS02006231WS02006230        0.03      0.03      0.08      3.92         0.01
  WS02006232WS02006231        0.06      0.06      2.04      0.10         0.01
  WS02006234WS02006232        1.97      1.97      2.04      0.09         0.10
  WS02006235WS02006234        0.22      0.22      2.00      3.60         0.01
  WS02006238WS02006235        2.01      2.02      2.05      0.01         0.01
  WS02006239WS02006238        2.02      2.03      2.03      2.25         1.97
  WS02006240WS02006239        2.00      2.01      2.00      2.23         1.95
  WS02006242WS02006240        2.01      2.01      2.14      2.52         0.01
  WS02006243WS02006242        2.00      2.00      2.08      0.01         0.02
  WS02006245WS02006243        2.00      2.00      2.00      2.26         1.92
  WS02006247WS02006245        1.99      2.01      1.99      3.27         1.99
  WS02006248WS02006247        1.99      1.99      2.00      0.01         0.02
  WS02006249WS02006248        1.98      1.98      1.98      3.20         0.01
  WS02006251WS02006249        1.98      1.99      1.98      2.42         1.94
  WS02006252WS02006251        2.50      2.50      2.54      2.51         0.01
  WS02006256WS02006235        3.66      3.72      5.43      0.26         0.02
  YS02001580YS02001583        1.04      1.04      1.12      0.01         0.01
  YS02001583YS02001586        1.05      1.05      1.25      0.01         0.01
  YS02001586YS02001590        1.25      1.25      1.35      0.01         0.01
  YS02001590YS02001593        1.35      1.35      1.38      1.40         0.01
  YS02001593YS02001596        1.36      1.36      1.50      0.01         0.01
  YS02001596YS02001600        1.55      1.55      1.62      0.01         0.01
  YS02001600YS02001601        1.66      1.66      1.84      0.01         0.01
  YS02001601YS02001602        1.77      1.77      1.87      1.61         0.01
  YS02001602YS02001605        1.74      1.74      1.77      2.42         0.01
  YS02001605YS02001607        1.71      1.74      1.72      1.79         1.69
  YS02001607YS02001610        1.38      1.38      1.42      0.01         0.01
  YS02001610YS02001613        1.37      1.37      1.42      0.01         0.01
  YS02001613YS02001616        1.32      1.32      1.37      0.01         0.01
  YS02001616YS02001619        1.30      1.30      1.32      0.24         0.20
  YS02001619YS02001622        1.30      1.30      1.31      1.25         1.14
  YS02001622YS02001625        1.31      1.31      1.51      0.01         0.01
  YS02001625YS02001629        1.24      1.24      1.51      0.01         0.01
  YS02001629YS02163301        1.51      1.51      1.52      0.19         0.12
  YS02001633YS02163601        1.54      1.54      1.57      0.14         0.22
  YS02001641YS02001644        1.48      1.50      1.48      1.89         1.46
  YS02001644YS02001647        1.25      1.25      1.48      0.04         0.01
  YS02001647YS02001649        1.25      1.25      1.39      0.01         0.01
  YS02001649YS02001757        1.39      1.39      1.45      0.13         0.07
  YS02001652YS02001649        1.21      1.21      1.39      0.01         0.01
  YS02001655YS02001652        0.93      0.93      1.18      0.01         0.01
  YS02001658YS02001655        0.52      0.52      0.93      0.01         0.01
  YS02001661YS02001658        0.24      0.24      0.52      0.01         0.01
  YS02001664YS02001661        0.07      0.07      0.29      0.01         0.01
  YS02001745YS02001748        0.05      0.05      0.42      0.01         0.01
  YS02001748YS02001751        0.47      0.47      0.78      0.01         0.01
  YS02001751YS02001754        0.78      0.78      1.09      0.01         0.01
  YS02001754YS02001757        1.14      1.14      1.45      0.01         0.01
  YS02001757CaochengTiaoxuchi        1.38      1.45      2.04      0.57         0.45
  YS02001759YS02001757        1.38      1.38      1.45      0.07         0.08
  YS02001762YS02001759        1.35      1.35      1.38      0.01         0.02
  YS02001765YS02001762        1.32      1.32      1.35      0.01         0.01
  YS02001767YS02001765        1.27      1.27      1.32      0.01         0.02
  YS02001770YS02001767        1.26      1.26      1.27      0.76         0.74
  YS02001774YS02001770        1.23      1.23      1.34      0.01         0.01
  YS02001779YS02001774        1.06      1.06      1.34      0.01         0.01
  YS02001783YS02001784        0.30      0.32      0.30      0.45         0.30
  YS02001784YS02001785        0.22      0.30      0.22      0.63         0.22
  YS02001786YS02001788        0.01      0.22      0.01      0.54         0.01
  YS02001790YS02001791        0.01      0.01      0.01      0.29         0.01
  YS02001793JiankangQianchi        0.01      0.01      6.62      0.01         0.01
  YS02001882YS02001884        0.28      0.28      0.29      0.01         0.01
  YS02001884YS02001887        0.31      0.31      0.32      0.01         0.01
  YS02001887YS02001890        0.33      0.33      0.34      0.01         0.01
  YS02001890YS02001895        0.27      0.27      0.35      0.01         0.01
  YS02001895YS02001898        0.26      0.26      0.27      0.01         0.01
  YS02001898YS02001901        0.27      0.27      0.31      0.01         0.01
  YS02001901YS02001904        0.30      0.30      0.31      0.01         0.01
  YS02001904YS02001907        0.30      0.30      0.53      0.01         0.01
  YS02001907YS02006553        0.64      0.64      0.70      0.01         0.01
  YS02001910YS02001907        0.35      0.35      0.51      0.01         0.01
  YS02001915YS02001910        0.28      0.28      0.35      0.01         0.01
  YS02001918YS02001915        0.21      0.21      0.28      0.01         0.01
  YS02001920YS02001918        0.21      0.21      0.22      0.01         0.01
  YS02001923YS02001920        0.17      0.17      0.22      0.01         0.01
  YS02001926YS02001923        0.01      0.01      0.01      0.01         0.01
  YS02001929YS02001926        0.01      0.01      0.01      0.01         0.01
  YS02006553YS02006556        0.43      0.43      0.52      0.01         0.01
  YS02006556YS02006558        0.47      0.47      0.54      0.01         0.01
  YS02006558YS02006561        0.24      0.42      0.24      0.59         0.24
  YS02006561YS02001783        0.17      0.17      0.32      0.01         0.01
  YS02163301YS02001633        1.52      1.52      1.55      0.01         0.01
  YS02163601YS02164001        1.50      1.50      1.57      0.10         0.01
  YS02164001YS02001641        1.49      1.50      1.50      1.00         0.93
  
  
  ***************
  Pumping Summary
  ***************
  
  ---------------------------------------------------------------------------------------------------------
                                                  Min       Avg       Max     Total     Power    % Time Off
                        Percent   Number of      Flow      Flow      Flow    Volume     Usage    Pump Curve
  Pump                 Utilized   Start-Ups       LPS       LPS       LPS  10^6 ltr     Kw-hr    Low   High
  ---------------------------------------------------------------------------------------------------------
  CC-R1                   29.64          50      0.00    683.00    683.00     5.831    109.88    0.0   24.1
  CC-R2                   24.30          36      0.00    683.00    683.00     4.780     91.32    0.0   19.6
  CC-S1                   39.84          47      0.00    200.00    200.00     2.295     12.45    0.0    0.0
  CC-S2                   33.24          26      0.00    200.00    200.00     1.915     10.07    0.0    0.0
  JK-R1                    3.62          47      0.00   1000.00   1000.00     1.042      6.52    0.0    0.0
  JK-R2                    6.03         139      0.00   1000.00   1000.00     1.738     10.08    0.0    0.0
  JK-S                     3.30          45      0.00    300.00    300.00     0.285      5.47    0.0    0.0
  

  Analysis begun on:  Wed Aug  9 16:29:31 2023
  Analysis ended on:  Wed Aug  9 16:30:09 2023
  Total elapsed time: 00:00:38