
  OWA STORM WATER MANAGEMENT MODEL - VERSION v5.1.14 (OWA 2022-07-31)
  --------------------------------------------------------------

  WARNING 04: minimum elevation drop used for Conduit WS02004404WS02004405
  WARNING 03: negative offset ignored for Link YS02001904YS02001907
  
  *********************************************************
  NOTE: The summary statistics displayed in this report are
  based on results found at every computational time step,  
  not just on results from each reporting time step.
  *********************************************************
  
  ****************
  Analysis Options
  ****************
  Flow Units ............... LPS
  Process Models:
    Rainfall/Runoff ........ YES
    RDII ................... NO
    Snowmelt ............... NO
    Groundwater ............ NO
    Flow Routing ........... YES
    Ponding Allowed ........ NO
    Water Quality .......... NO
  Infiltration Method ...... HORTON
  Flow Routing Method ...... DYNWAVE
  Surcharge Method ......... EXTRAN
  Starting Date ............ 08/28/2015 08:00:00
  Ending Date .............. 08/28/2015 16:00:00
  Antecedent Dry Days ...... 8.0
  Report Time Step ......... 00:01:00
  Wet Time Step ............ 00:01:00
  Dry Time Step ............ 00:01:00
  Routing Time Step ........ 30.00 sec
  Variable Time Step ....... YES
  Maximum Trials ........... 8
  Number of Threads ........ 4
  Head Tolerance ........... 0.001500 m
  
  
  **************************        Volume         Depth
  Runoff Quantity Continuity     hectare-m            mm
  **************************     ---------       -------
  Initial LID Storage ......         0.049         1.488
  Total Precipitation ......         8.606       259.456
  Evaporation Loss .........         0.000         0.000
  Infiltration Loss ........         0.086         2.591
  Surface Runoff ...........         7.628       229.962
  Final Storage ............         0.944        28.464
  Continuity Error (%) .....        -0.028
  
  
  **************************        Volume        Volume
  Flow Routing Continuity        hectare-m      10^6 ltr
  **************************     ---------     ---------
  Dry Weather Inflow .......         0.000         0.000
  Wet Weather Inflow .......         7.629        76.292
  Groundwater Inflow .......         0.000         0.000
  RDII Inflow ..............         0.000         0.000
  External Inflow ..........         0.083         0.834
  External Outflow .........         2.326        23.265
  Flooding Loss ............         5.490        54.897
  Evaporation Loss .........         0.000         0.000
  Exfiltration Loss ........         0.000         0.000
  Initial Stored Volume ....         0.243         2.431
  Final Stored Volume ......         0.178         1.781
  Continuity Error (%) .....        -0.487
  
  
  *************************
  Highest Continuity Errors
  *************************
  Node YS02001884 (4.21%)
  Node YS02001583 (-2.99%)
  Node WS02006256 (-1.59%)
  Node WS02006110 (-1.01%)
  
  
  ***************************
  Time-Step Critical Elements
  ***************************
  Link WS02004404WS02004405 (23.89%)
  Link WS02006238WS02006235 (16.61%)
  Link WS02006252WS02006251 (15.10%)
  Link WS02006235WS02006234 (10.83%)
  Link YS02001791YS02001793 (9.94%)
  
  
  ********************************
  Highest Flow Instability Indexes
  ********************************
  Link WS02006113WS02006111 (45)
  Link WS02006238WS02006235 (34)
  Link WS02006252WS02006251 (31)
  Link WS02006256WS02006235 (30)
  Link WS02006111WS02006112 (29)
  
  
  *************************
  Routing Time Step Summary
  *************************
  Minimum Time Step           :     0.00 sec
  Average Time Step           :     2.67 sec
  Maximum Time Step           :    30.00 sec
  Percent in Steady State     :    -0.00
  Average Iterations per Step :     4.20
  Percent Not Converging      :    24.02
  
  
  ***************************
  Subcatchment Runoff Summary
  ***************************
  
  ------------------------------------------------------------------------------------------------------------------------------
                            Total      Total      Total      Total     Imperv       Perv      Total       Total     Peak  Runoff
                           Precip      Runon       Evap      Infil     Runoff     Runoff     Runoff      Runoff   Runoff   Coeff
  Subcatchment                 mm         mm         mm         mm         mm         mm         mm    10^6 ltr      LPS
  ------------------------------------------------------------------------------------------------------------------------------
  sub60                    316.61       0.00       0.00       1.49     214.17      27.84     283.23        3.72  3170.84   0.895
  sub61                    316.61       0.00       0.00       2.30     213.97      41.71     288.65        5.30  4396.91   0.912
  sub62                    316.61       0.00       0.00       1.01     228.17      18.92     285.64        7.83  6433.88   0.902
  sub63                    316.61       0.00       0.00       4.29     183.27      70.89     286.93        6.51  5268.51   0.906
  sub64                    316.61       0.00       0.00       2.05     208.77      34.96     283.64        6.81  5513.80   0.896
  sub65                    316.61       0.00       0.00       1.88     225.38      31.95     289.53        7.97  6186.52   0.914
  sub66                    316.61       0.00       0.00       5.14     177.44      67.67     282.51       13.17  9635.15   0.892
  sub67                     96.21       0.00       0.00       0.96      70.35       5.24      75.60        1.41   941.82   0.786
  sub68                     96.21       0.00       0.00       1.68      62.14       8.58      70.72        1.95  1184.15   0.735
  sub69                    316.61       0.00       0.00       1.69     213.21      35.95     286.67       10.61  8339.22   0.905
  sub70                    316.61       0.00       0.00       5.89     170.99      82.25     285.99        8.26  5611.68   0.903
  sub71                     96.21       0.00       0.00       0.90      62.35       4.61      66.96        1.75   971.60   0.696
  sub72                     96.21       0.00       0.00       0.85      67.37       4.30      71.66        0.99   493.89   0.745
  

  ***********************
  LID Performance Summary
  ***********************

  --------------------------------------------------------------------------------------------------------------------
                                         Total      Evap     Infil   Surface    Drain    Initial     Final  Continuity
                                        Inflow      Loss      Loss   Outflow   Outflow   Storage   Storage       Error
  Subcatchment      LID Control             mm        mm        mm        mm        mm        mm        mm           %
  --------------------------------------------------------------------------------------------------------------------
  sub60             GreenRoof           316.61      0.00      0.00    180.56      0.00      7.05    143.11        0.00
  sub61             GreenRoof           316.61      0.00      0.00    180.56      0.00      7.05    143.11        0.00
  sub62             GreenRoof           316.61      0.00      0.00    180.56      0.00      7.05    143.11        0.00
  sub63             GreenRoof           316.61      0.00      0.00    180.56      0.00      7.05    143.11        0.00
  sub64             GreenRoof           316.61      0.00      0.00    180.56      0.00      7.05    143.11        0.00
  sub65             GreenRoof           316.61      0.00      0.00    180.56      0.00      7.05    143.11        0.00
  sub66             GreenRoof           316.61      0.00      0.00    180.56      0.00      7.05    143.11        0.00
  sub67             GreenRoof            96.21      0.00      0.00      0.00      0.00      7.05    103.34       -0.08
  sub68             GreenRoof            96.21      0.00      0.00      0.00      0.00      7.05    103.34       -0.08
  sub69             GreenRoof           316.61      0.00      0.00    180.56      0.00      7.05    143.11        0.00
  sub70             GreenRoof           316.61      0.00      0.00    180.56      0.00      7.05    143.11        0.00
  sub71             GreenRoof            96.21      0.00      0.00      0.00      0.00      7.05    103.34       -0.08
  sub72             GreenRoof            96.21      0.00      0.00      0.00      0.00      7.05    103.34       -0.08
  
  ******************
  Node Depth Summary
  ******************
  
  ---------------------------------------------------------------------------------
                                 Average  Maximum  Maximum  Time of Max    Reported
                                   Depth    Depth      HGL   Occurrence   Max Depth
  Node                 Type       Meters   Meters   Meters  days hr:min      Meters
  ---------------------------------------------------------------------------------
  WS02003060           JUNCTION     0.24     0.38     5.31     0  01:50        0.38
  WS02003066           JUNCTION     0.20     0.30     5.85     0  01:49        0.30
  WS02003067           JUNCTION     0.51     0.70     6.02     0  01:49        0.70
  WS02003069           JUNCTION     0.27     0.43     5.01     0  01:50        0.43
  WS02003072           JUNCTION     0.33     0.50     4.87     0  01:51        0.50
  WS02003073           JUNCTION     0.19     0.30     4.36     0  01:51        0.30
  WS02004401           JUNCTION     0.62     0.87     6.87     0  01:47        0.87
  WS02004402           JUNCTION     0.65     0.90     6.86     0  01:47        0.90
  WS02004403           JUNCTION     0.67     0.92     6.85     0  01:47        0.92
  WS02004404           JUNCTION     0.75     1.04     6.89     0  01:47        1.00
  WS02004405           JUNCTION     0.74     0.97     6.82     0  02:54        0.96
  WS02004406           JUNCTION     0.75     0.96     6.79     0  02:54        0.96
  WS02004407           JUNCTION     0.18     0.30     6.61     0  01:48        0.30
  WS02004409           JUNCTION     0.41     0.67     6.44     0  01:48        0.67
  WS02004410           JUNCTION     0.43     0.68     6.40     0  01:48        0.68
  WS02004411           JUNCTION     0.45     0.69     6.37     0  01:48        0.69
  WS02004412           JUNCTION     0.47     0.70     6.34     0  01:49        0.70
  WS02004413           JUNCTION     0.64     0.86     6.33     0  01:49        0.86
  WS02006109           JUNCTION     0.66     1.24     7.85     0  00:00        1.19
  WS02006110           JUNCTION     0.66     1.45     8.04     0  00:00        1.02
  WS02006111           JUNCTION     0.18     1.67     8.37     0  00:00        0.56
  WS02006112           JUNCTION     0.77     2.68     8.56     0  00:00        1.29
  WS02006113           JUNCTION     0.28     1.50     8.40     0  00:00        0.46
  WS02006115           JUNCTION     0.50     1.69     7.83     0  00:00        0.86
  WS02006116           JUNCTION     0.59     1.11     7.15     0  00:00        0.85
  WS02006228           JUNCTION     0.66     1.64     8.29     0  00:00        1.24
  WS02006229           JUNCTION     0.63     1.31     8.00     0  00:00        1.18
  WS02006230           JUNCTION     0.64     1.28     8.03     0  03:26        1.28
  WS02006231           JUNCTION     0.43     1.32     8.44     0  03:07        1.03
  WS02006232           JUNCTION     0.57     1.33     8.37     0  01:30        1.19
  WS02006234           JUNCTION     0.50     1.58     8.74     0  03:26        1.11
  WS02006235           JUNCTION     0.54     1.86     9.02     0  03:26        1.28
  WS02006238           JUNCTION     0.57     1.92     9.06     0  03:26        1.32
  WS02006239           JUNCTION     0.55     1.86     9.07     0  03:26        1.41
  WS02006240           JUNCTION     0.52     1.72     9.01     0  03:26        1.63
  WS02006242           JUNCTION     0.59     1.55     8.82     0  03:26        1.35
  WS02006243           JUNCTION     0.52     1.41     8.83     0  03:26        1.28
  WS02006245           JUNCTION     0.52     1.33     8.81     0  03:26        1.26
  WS02006247           JUNCTION     0.55     1.27     8.77     0  03:26        1.24
  WS02006248           JUNCTION     0.51     1.10     8.69     0  01:33        1.10
  WS02006249           JUNCTION     0.54     1.09     8.69     0  01:31        1.09
  WS02006251           JUNCTION     0.54     1.46     9.13     0  01:31        1.27
  WS02006252           JUNCTION     0.37     1.50     9.74     0  00:11        1.50
  WS02006256           JUNCTION     0.98     2.35     9.28     0  00:06        2.35
  WSF200               JUNCTION     0.17     0.29     5.52     0  01:49        0.29
  YS02001580           JUNCTION     0.23     0.89     9.43     0  01:25        0.83
  YS02001583           JUNCTION     0.27     0.95     9.44     0  01:25        0.86
  YS02001586           JUNCTION     0.39     1.13     9.30     0  01:25        1.13
  YS02001590           JUNCTION     0.52     1.40     9.26     0  01:26        1.40
  YS02001593           JUNCTION     0.45     1.44     9.30     0  01:26        1.29
  YS02001596           JUNCTION     0.60     1.80     9.22     0  01:56        1.80
  YS02001600           JUNCTION     0.70     1.87     9.00     0  01:25        1.87
  YS02001601           JUNCTION     0.88     2.06     8.90     0  01:17        2.06
  YS02001602           JUNCTION     0.78     1.87     8.77     0  01:38        1.87
  YS02001605           JUNCTION     0.72     1.78     8.68     0  01:26        1.78
  YS02001607           JUNCTION     0.68     1.68     8.53     0  01:56        1.68
  YS02001610           JUNCTION     0.72     1.68     8.48     0  01:39        1.68
  YS02001613           JUNCTION     0.68     1.70     8.54     0  02:27        1.70
  YS02001616           JUNCTION     0.62     1.61     8.52     0  01:56        1.61
  YS02001619           JUNCTION     0.60     1.61     8.54     0  02:14        1.61
  YS02001622           JUNCTION     0.59     1.59     8.49     0  02:42        1.59
  YS02001625           JUNCTION     0.83     1.78     8.38     0  01:41        1.78
  YS02001629           JUNCTION     0.75     1.85     8.40     0  01:48        1.85
  YS02001633           JUNCTION     0.83     2.08     8.53     0  02:19        2.08
  YS02001641           JUNCTION     0.80     2.10     8.54     0  01:56        2.10
  YS02001644           JUNCTION     0.79     1.92     8.35     0  01:50        1.92
  YS02001647           JUNCTION     0.59     1.90     8.51     0  01:56        1.90
  YS02001649           JUNCTION     0.68     2.05     8.44     0  01:56        2.05
  YS02001652           JUNCTION     0.57     2.16     8.76     0  01:56        2.16
  YS02001655           JUNCTION     0.48     2.20     9.05     0  01:56        2.20
  YS02001658           JUNCTION     0.39     2.30     9.44     0  02:27        2.30
  YS02001661           JUNCTION     0.37     2.46     9.86     0  02:27        2.46
  YS02001664           JUNCTION     0.20     2.31    10.23     0  02:27        2.31
  YS02001745           JUNCTION     0.24     2.35     9.87     0  02:32        2.35
  YS02001748           JUNCTION     0.36     2.27     9.35     0  02:32        2.27
  YS02001751           JUNCTION     0.42     2.20     9.08     0  02:32        2.20
  YS02001754           JUNCTION     0.53     2.20     8.81     0  01:56        2.20
  YS02001757           JUNCTION     0.72     2.21     8.47     0  02:27        2.21
  YS02001759           JUNCTION     0.66     2.21     8.57     0  01:56        2.21
  YS02001762           JUNCTION     0.64     2.15     8.55     0  01:56        2.15
  YS02001765           JUNCTION     0.62     2.10     8.55     0  01:56        2.10
  YS02001767           JUNCTION     0.60     2.03     8.52     0  01:56        2.03
  YS02001770           JUNCTION     0.61     1.95     8.44     0  01:56        1.95
  YS02001774           JUNCTION     0.67     2.05     8.47     0  01:56        2.05
  YS02001779           JUNCTION     0.49     1.68     8.37     0  01:56        1.68
  YS02001783           JUNCTION     0.26     1.38     7.52     0  01:24        1.24
  YS02001784           JUNCTION     0.26     1.25     7.32     0  01:24        1.12
  YS02001786           JUNCTION     0.22     1.21     7.24     0  01:24        0.87
  YS02001788           JUNCTION     0.16     0.65     6.63     0  01:25        0.62
  YS02001790           JUNCTION     0.19     0.73     6.37     0  01:31        0.72
  YS02001791           JUNCTION     0.12     0.44     5.91     0  01:31        0.43
  YS02001793           JUNCTION     0.06     0.21     5.04     0  01:31        0.21
  YS02001882           JUNCTION     0.34     1.83     8.55     0  01:24        1.78
  YS02001884           JUNCTION     0.43     1.92     8.54     0  01:24        1.88
  YS02001887           JUNCTION     0.50     2.00     8.54     0  01:26        2.00
  YS02001890           JUNCTION     0.52     1.81     8.32     0  01:24        1.81
  YS02001895           JUNCTION     0.31     1.67     8.42     0  01:24        1.57
  YS02001898           JUNCTION     0.32     1.77     8.51     0  01:24        1.77
  YS02001901           JUNCTION     0.42     1.82     8.43     0  01:24        1.68
  YS02001904           JUNCTION     0.40     1.79     8.42     0  01:26        1.79
  YS02001907           JUNCTION     0.70     1.96     8.25     0  01:24        1.96
  YS02001910           JUNCTION     0.51     2.10     8.61     0  01:24        2.10
  YS02001915           JUNCTION     0.34     2.00     8.72     0  01:24        2.00
  YS02001918           JUNCTION     0.19     1.81     8.88     0  01:25        1.81
  YS02001920           JUNCTION     0.25     2.14     9.15     0  01:25        1.56
  YS02001923           JUNCTION     0.16     2.03     9.29     0  01:25        1.44
  YS02001926           JUNCTION     0.18     1.90     9.35     0  01:25        1.26
  YS02001929           JUNCTION     0.11     1.78     9.47     0  01:25        1.14
  YS02006553           JUNCTION     0.70     2.19     8.47     0  01:26        2.19
  YS02006556           JUNCTION     0.67     2.04     8.35     0  01:26        2.04
  YS02006558           JUNCTION     0.71     2.50     8.77     0  01:26        2.50
  YS02006561           JUNCTION     0.17     1.02     7.68     0  01:24        0.92
  YS02163301           JUNCTION     0.78     1.96     8.48     0  02:27        1.96
  YS02163601           JUNCTION     0.86     2.08     8.48     0  01:56        2.08
  YS02164001           JUNCTION     0.79     2.10     8.56     0  01:56        2.10
  CC-1                 OUTFALL      0.00     0.00     0.00     0  00:00        0.00
  CC-2                 OUTFALL      0.00     0.00     0.00     0  00:00        0.00
  JK-1                 OUTFALL      0.00     0.00     0.00     0  00:00        0.00
  JK-2                 OUTFALL      0.00     0.00     0.00     0  00:00        0.00
  WSC                  OUTFALL      0.19     0.30     0.97     0  01:52        0.30
  CC-storage           STORAGE      1.06     2.30     7.80     0  02:50        2.30
  JK-storage           STORAGE      1.19     3.35     4.15     0  02:33        3.23
  
  
  *******************
  Node Inflow Summary
  *******************
  
  -------------------------------------------------------------------------------------------------
                                  Maximum  Maximum                  Lateral       Total        Flow
                                  Lateral    Total  Time of Max      Inflow      Inflow     Balance
                                   Inflow   Inflow   Occurrence      Volume      Volume       Error
  Node                 Type           LPS      LPS  days hr:min    10^6 ltr    10^6 ltr     Percent
  -------------------------------------------------------------------------------------------------
  WS02003060           JUNCTION     16.53   551.40     0  01:50       0.476        5.97       0.035
  WS02003066           JUNCTION      0.00   534.51     0  01:49           0         5.5       0.023
  WS02003067           JUNCTION      0.00   534.41     0  01:49           0         5.5       0.072
  WS02003069           JUNCTION      0.32   551.40     0  01:50     0.00922        5.98       0.058
  WS02003072           JUNCTION      0.00   550.84     0  01:51           0        5.98       0.107
  WS02003073           JUNCTION      1.82   552.29     0  01:51      0.0524        6.02       0.084
  WS02004401           JUNCTION      0.00  1786.04     0  00:00           0         5.6       0.189
  WS02004402           JUNCTION      0.00  1248.69     0  00:01           0        5.59       0.191
  WS02004403           JUNCTION      0.00   929.44     0  00:01           0        5.58       0.187
  WS02004404           JUNCTION      0.00   877.02     0  00:01           0        5.57       0.110
  WS02004405           JUNCTION      0.00   827.31     0  00:01           0        5.57       0.192
  WS02004406           JUNCTION      0.00   768.45     0  00:02           0        5.55       0.378
  WS02004407           JUNCTION      0.00   537.52     0  01:47           0        5.53       0.015
  WS02004409           JUNCTION      0.00   537.00     0  01:48           0        5.53       0.041
  WS02004410           JUNCTION      0.00   536.24     0  01:48           0        5.53       0.074
  WS02004411           JUNCTION      0.00   535.66     0  01:48           0        5.53       0.095
  WS02004412           JUNCTION      0.00   535.13     0  01:49           0        5.52       0.127
  WS02004413           JUNCTION      0.00   534.92     0  01:49           0        5.51       0.235
  WS02006109           JUNCTION      0.00  1446.81     0  00:00           0         5.5      -0.134
  WS02006110           JUNCTION      0.00   552.08     0  02:03           0        5.48      -1.002
  WS02006111           JUNCTION      0.00  1180.41     0  00:00           0        5.53      -0.774
  WS02006112           JUNCTION      0.00  2307.30     0  00:00           0        5.57       0.001
  WS02006113           JUNCTION      0.00   563.93     0  02:03           0        5.49      -0.693
  WS02006115           JUNCTION      0.00   953.54     0  00:00           0        5.54      -0.651
  WS02006116           JUNCTION      0.00  1264.47     0  00:00           0        5.58      -0.422
  WS02006228           JUNCTION      0.00   869.18     0  00:00           0        5.48      -0.030
  WS02006229           JUNCTION      0.00   550.89     0  02:03           0        5.47      -0.049
  WS02006230           JUNCTION     10.28   706.67     0  00:00       0.296        5.45      -0.005
  WS02006231           JUNCTION      0.00   577.40     0  03:25           0        5.15      -0.013
  WS02006232           JUNCTION      0.00   575.96     0  03:25           0        5.15       0.115
  WS02006234           JUNCTION      0.00   570.97     0  03:25           0        5.13      -0.105
  WS02006235           JUNCTION      0.00   562.60     0  03:25           0        5.18       0.038
  WS02006238           JUNCTION      0.00   432.66     0  03:27           0        4.41      -0.182
  WS02006239           JUNCTION      0.00   430.19     0  03:27           0        4.37      -0.162
  WS02006240           JUNCTION      0.00   426.55     0  03:57           0        4.35      -0.038
  WS02006242           JUNCTION      0.00   426.93     0  03:27           0        4.34       0.033
  WS02006243           JUNCTION      0.00   426.79     0  03:27           0        4.33      -0.217
  WS02006245           JUNCTION      0.00   426.61     0  03:27           0        4.34       0.271
  WS02006247           JUNCTION      0.00   426.87     0  03:27           0        4.34      -0.035
  WS02006248           JUNCTION      0.00   427.20     0  03:27           0        4.34      -0.019
  WS02006249           JUNCTION      0.00   493.55     0  01:26           0        4.55       0.220
  WS02006251           JUNCTION      0.00   407.06     0  00:11           0        4.55       0.064
  WS02006252           JUNCTION      0.00   400.00     0  00:11           0        4.53      -0.482
  WS02006256           JUNCTION      0.00   300.00     0  00:06           0        1.16      -1.565
  WSF200               JUNCTION      0.00   534.60     0  01:49           0         5.5       0.007
  YS02001580           JUNCTION      0.00    59.60     0  01:25           0     0.00485       0.832
  YS02001583           JUNCTION      0.00    88.28     0  01:25           0      0.0167      -2.899
  YS02001586           JUNCTION   5611.68  5611.69     0  02:36        8.26        8.28       0.005
  YS02001590           JUNCTION      0.00   326.12     0  01:56           0        2.43      -0.028
  YS02001593           JUNCTION      0.00   325.76     0  01:56           0        2.43       0.017
  YS02001596           JUNCTION      0.00   319.83     0  01:56           0        2.43      -0.005
  YS02001600           JUNCTION      0.00   319.09     0  01:56           0        2.43       0.001
  YS02001601           JUNCTION   8339.22  8656.72     0  02:36        10.6          13      -0.005
  YS02001602           JUNCTION      0.00   500.75     0  01:25           0        3.44       0.012
  YS02001605           JUNCTION      0.00   500.57     0  01:25           0        3.11       0.018
  YS02001607           JUNCTION      0.00   500.14     0  01:25           0        3.11       0.055
  YS02001610           JUNCTION      0.00   954.45     0  02:43           0         4.9       0.044
  YS02001613           JUNCTION      0.00   618.47     0  02:28           0        3.36       0.040
  YS02001616           JUNCTION      0.00   618.78     0  02:28           0        3.37       0.015
  YS02001619           JUNCTION   9635.15  9635.15     0  02:36        13.2        14.8      -0.007
  YS02001622           JUNCTION      0.00  1054.20     0  02:41           0        7.25      -0.001
  YS02001625           JUNCTION      0.00  1505.61     0  02:43           0         8.6       0.139
  YS02001629           JUNCTION      0.00  1139.25     0  02:40           0        5.46      -0.017
  YS02001633           JUNCTION   6186.52  6186.52     0  02:36        7.97          11       0.023
  YS02001641           JUNCTION      0.00  1312.79     0  01:39           0         6.7       0.045
  YS02001644           JUNCTION   5513.80  7265.44     0  02:36        6.81        14.9       0.011
  YS02001647           JUNCTION      0.00  1634.74     0  01:39           0        7.53       0.002
  YS02001649           JUNCTION      0.00  3236.41     0  02:39           0        12.3      -0.002
  YS02001652           JUNCTION      0.00  2429.38     0  02:32           0        5.61      -0.022
  YS02001655           JUNCTION      0.00  2731.29     0  02:37           0        5.81       0.014
  YS02001658           JUNCTION      0.00  2783.86     0  02:33           0        5.84      -0.049
  YS02001661           JUNCTION      0.00  2783.92     0  02:32           0        5.84      -0.045
  YS02001664           JUNCTION   5268.51  5268.51     0  02:36        6.51        6.51      -0.003
  YS02001745           JUNCTION   3170.84  3170.84     0  02:36        3.72        3.72       0.027
  YS02001748           JUNCTION      0.00  3116.59     0  02:36           0        3.72      -0.054
  YS02001751           JUNCTION      0.00  2353.41     0  02:37           0        3.61       0.028
  YS02001754           JUNCTION      0.00  2353.41     0  02:37           0        3.61      -0.046
  YS02001757           JUNCTION      0.00  3760.70     0  02:37           0        18.3       0.024
  YS02001759           JUNCTION   4396.91  4396.91     0  02:36         5.3        7.43      -0.010
  YS02001762           JUNCTION      0.00   723.75     0  02:32           0        2.91      -0.003
  YS02001765           JUNCTION      0.00   722.35     0  02:39           0        2.91       0.003
  YS02001767           JUNCTION      0.00   723.00     0  02:39           0        2.91      -0.005
  YS02001770           JUNCTION   6433.88  7155.70     0  02:36        7.83        8.66      -0.021
  YS02001774           JUNCTION      0.00   852.44     0  02:41           0        2.07       0.043
  YS02001779           JUNCTION      0.00   851.89     0  02:41           0        2.03      -0.012
  YS02001783           JUNCTION      0.00  1169.67     0  01:26           0        4.43      -0.004
  YS02001784           JUNCTION      0.00  1169.94     0  01:26           0        4.43       0.001
  YS02001786           JUNCTION      0.00  1170.15     0  01:26           0        4.43       0.000
  YS02001788           JUNCTION      0.00  1168.94     0  01:25           0        4.43      -0.000
  YS02001790           JUNCTION      0.00  1223.44     0  01:25           0        4.43       0.025
  YS02001791           JUNCTION      0.00  1289.80     0  01:29           0        4.43      -0.036
  YS02001793           JUNCTION      0.00  1247.41     0  01:25           0        4.43       0.002
  YS02001882           JUNCTION      0.00   155.82     0  01:24           0      0.0131       2.771
  YS02001884           JUNCTION      0.00   261.47     0  01:24           0      0.0493       4.393
  YS02001887           JUNCTION    941.82   945.33     0  01:26        1.41        1.44       0.275
  YS02001890           JUNCTION      0.00   946.92     0  01:26           0         1.4       0.284
  YS02001895           JUNCTION      0.00   756.25     0  01:24           0        1.24       0.160
  YS02001898           JUNCTION      0.00   690.00     0  01:24           0        1.24      -0.106
  YS02001901           JUNCTION      0.00   522.03     0  01:24           0        1.24       0.210
  YS02001904           JUNCTION      0.00   523.23     0  01:24           0        1.26       0.171
  YS02001907           JUNCTION      0.00  1997.06     0  01:28           0           4       0.423
  YS02001910           JUNCTION      0.00  1479.89     0  01:28           0        2.74       0.224
  YS02001915           JUNCTION    971.60  1479.81     0  01:28        1.75        2.79       0.008
  YS02001918           JUNCTION      0.00  1084.71     0  01:24           0        1.08       0.026
  YS02001920           JUNCTION      0.00  1007.53     0  01:25           0        1.04      -0.082
  YS02001923           JUNCTION      0.00  1512.85     0  01:25           0        1.02      -0.443
  YS02001926           JUNCTION      0.00  1622.86     0  01:25           0           1      -0.053
  YS02001929           JUNCTION    493.89  1135.79     0  01:25       0.985       0.991      -0.225
  YS02006553           JUNCTION      0.00   786.35     0  01:50           0        2.56       0.442
  YS02006556           JUNCTION      0.00   786.12     0  01:50           0        2.58       0.282
  YS02006558           JUNCTION   1184.15  1237.92     0  01:24        1.95        4.48       0.072
  YS02006561           JUNCTION      0.00  1242.24     0  01:24           0        4.43      -0.003
  YS02163301           JUNCTION      0.00  1139.13     0  02:39           0        5.47       0.025
  YS02163601           JUNCTION      0.00  1311.40     0  01:39           0        6.69       0.078
  YS02164001           JUNCTION      0.00  1311.64     0  01:39           0        6.69       0.030
  CC-1                 OUTFALL       0.00   683.00     0  00:06           0        7.54       0.000
  CC-2                 OUTFALL       0.00   683.00     0  00:06           0        6.31       0.000
  JK-1                 OUTFALL       0.00  1000.00     0  00:06           0       0.781       0.000
  JK-2                 OUTFALL       0.00  1000.00     0  01:23           0        2.62       0.000
  WSC                  OUTFALL       0.00   551.76     0  01:52           0        6.02       0.000
  CC-storage           STORAGE       0.00  2782.39     0  01:58           0        19.8      -0.162
  JK-storage           STORAGE       0.00  1246.42     0  01:25           0        4.59      -0.382
  
  
  **********************
  Node Surcharge Summary
  **********************
  
  Surcharging occurs when water rises above the top of the highest conduit.
  ---------------------------------------------------------------------
                                               Max. Height   Min. Depth
                                   Hours       Above Crown    Below Rim
  Node                 Type      Surcharged         Meters       Meters
  ---------------------------------------------------------------------
  WS02004404           JUNCTION        0.01          0.041        2.739
  WS02006109           JUNCTION        2.61          0.416        1.404
  WS02006110           JUNCTION        0.71          0.544        1.306
  WS02006111           JUNCTION        0.01          0.856        1.014
  WS02006112           JUNCTION        0.80          1.680        0.000
  WS02006113           JUNCTION        0.01          0.705        1.225
  WS02006115           JUNCTION        0.01          0.682        1.568
  WS02006116           JUNCTION        0.01          0.053        2.237
  WS02006228           JUNCTION        2.59          0.810        1.390
  WS02006229           JUNCTION        2.63          0.510        1.940
  WS02006230           JUNCTION        0.71          0.203        1.367
  WS02006231           JUNCTION        0.81          0.610        0.920
  WS02006232           JUNCTION        2.68          0.629        0.851
  WS02006234           JUNCTION        1.23          0.862        0.378
  WS02006235           JUNCTION        2.58          1.148        0.142
  WS02006238           JUNCTION        2.65          1.197        0.233
  WS02006239           JUNCTION        2.60          1.119        0.171
  WS02006240           JUNCTION        2.62          1.012        0.378
  WS02006242           JUNCTION        2.69          0.820        0.000
  WS02006243           JUNCTION        2.62          0.699        0.071
  WS02006245           JUNCTION        2.62          0.620        0.230
  WS02006247           JUNCTION        2.64          0.562        0.198
  WS02006248           JUNCTION        2.60          0.380        0.000
  WS02006249           JUNCTION        2.62          0.390        0.000
  WS02006251           JUNCTION        0.88          0.430        0.750
  WS02006252           JUNCTION        3.05          1.100        0.000
  WS02006256           JUNCTION        6.22          2.050        0.000
  YS02001580           JUNCTION        1.69          0.291        0.159
  YS02001583           JUNCTION        1.69          0.306        0.194
  YS02001586           JUNCTION        1.81          0.510        0.000
  YS02001590           JUNCTION        1.89          0.750        0.000
  YS02001593           JUNCTION        1.89          0.818        0.022
  YS02001596           JUNCTION        2.00          1.070        0.000
  YS02001600           JUNCTION        2.12          1.190        0.000
  YS02001601           JUNCTION        2.34          1.440        0.000
  YS02001602           JUNCTION        2.29          1.270        0.000
  YS02001605           JUNCTION        2.26          1.180        0.000
  YS02001607           JUNCTION        1.90          0.680        0.000
  YS02001610           JUNCTION        1.93          0.680        0.000
  YS02001613           JUNCTION        1.90          0.697        0.003
  YS02001616           JUNCTION        1.86          0.610        0.000
  YS02001619           JUNCTION        1.84          0.610        0.000
  YS02001622           JUNCTION        1.85          0.586        0.034
  YS02001625           JUNCTION        2.04          0.780        0.000
  YS02001629           JUNCTION        1.74          0.470        0.000
  YS02001633           JUNCTION        2.10          1.060        0.000
  YS02001641           JUNCTION        2.07          1.100        0.000
  YS02001644           JUNCTION        2.04          0.920        0.000
  YS02001647           JUNCTION        1.68          0.900        0.000
  YS02001649           JUNCTION        1.82          1.050        0.000
  YS02001652           JUNCTION        1.62          1.130        0.000
  YS02001655           JUNCTION        1.42          1.200        0.000
  YS02001658           JUNCTION        1.14          1.300        0.000
  YS02001661           JUNCTION        0.61          1.390        0.000
  YS02001664           JUNCTION        0.39          1.310        0.000
  YS02001745           JUNCTION        0.40          1.350        0.000
  YS02001748           JUNCTION        1.04          1.190        0.000
  YS02001751           JUNCTION        1.32          1.200        0.000
  YS02001754           JUNCTION        1.54          1.150        0.000
  YS02001757           JUNCTION        1.89          1.210        0.000
  YS02001759           JUNCTION        1.80          1.210        0.000
  YS02001762           JUNCTION        1.77          1.150        0.000
  YS02001765           JUNCTION        1.73          1.100        0.000
  YS02001767           JUNCTION        1.70          1.030        0.000
  YS02001770           JUNCTION        1.68          0.920        0.000
  YS02001774           JUNCTION        1.75          1.050        0.000
  YS02001779           JUNCTION        1.54          0.680        0.000
  YS02001783           JUNCTION        0.62          0.584        1.016
  YS02001784           JUNCTION        0.60          0.451        1.039
  YS02001786           JUNCTION        0.49          0.415        1.015
  YS02001882           JUNCTION        0.56          0.830        0.000
  YS02001884           JUNCTION        0.57          0.862        0.008
  YS02001887           JUNCTION        0.62          0.950        0.000
  YS02001890           JUNCTION        0.63          0.760        0.000
  YS02001895           JUNCTION        0.55          0.670        0.080
  YS02001898           JUNCTION        0.54          0.740        0.000
  YS02001901           JUNCTION        0.60          0.820        0.050
  YS02001904           JUNCTION        0.59          0.787        0.063
  YS02001907           JUNCTION        0.82          0.950        0.000
  YS02001910           JUNCTION        0.65          1.100        0.000
  YS02001915           JUNCTION        0.56          1.000        0.000
  YS02001918           JUNCTION        0.47          0.810        0.000
  YS02001920           JUNCTION        0.49          1.140        0.000
  YS02001923           JUNCTION        0.12          0.820        0.000
  YS02001926           JUNCTION        0.15          0.900        0.000
  YS02001929           JUNCTION        0.01          0.780        0.000
  YS02006553           JUNCTION        0.85          1.190        0.000
  YS02006556           JUNCTION        0.74          1.000        0.350
  YS02006558           JUNCTION        0.73          1.400        0.000
  YS02006561           JUNCTION        0.44          0.220        0.930
  YS02163301           JUNCTION        2.07          0.959        0.071
  YS02163601           JUNCTION        2.15          1.080        0.000
  YS02164001           JUNCTION        2.06          1.100        0.000
  
  
  *********************
  Node Flooding Summary
  *********************
  
  Flooding refers to all water that overflows a node, whether it ponds or not.
  --------------------------------------------------------------------------
                                                             Total   Maximum
                                 Maximum   Time of Max       Flood    Ponded
                        Hours       Rate    Occurrence      Volume     Depth
  Node                 Flooded       LPS   days hr:min    10^6 ltr    Meters
  --------------------------------------------------------------------------
  WS02006112              0.01   1405.86      0  00:00       0.047     0.000
  WS02006242              0.01     14.38      0  03:26       0.000     0.000
  WS02006248              0.01     19.69      0  03:08       0.000     0.000
  WS02006249              0.85    100.37      0  01:31       0.202     0.000
  WS02006252              0.01    262.89      0  01:26       0.000     0.000
  WS02006256              1.08    289.58      0  04:06       0.399     0.000
  YS02001586              1.49   5292.59      0  02:36       5.832     0.000
  YS02001590              0.01     12.15      0  01:26       0.000     0.000
  YS02001596              0.01      0.27      0  01:56       0.000     0.000
  YS02001600              0.01     21.56      0  01:26       0.000     0.000
  YS02001601              1.74   8251.96      0  02:36       9.601     0.000
  YS02001602              1.52     62.13      0  02:19       0.328     0.000
  YS02001605              0.01      0.38      0  01:26       0.000     0.000
  YS02001607              0.01      0.14      0  01:56       0.000     0.000
  YS02001610              1.45    954.05      0  02:28       3.324     0.000
  YS02001616              0.11     17.88      0  02:54       0.001     0.000
  YS02001619              0.60   7960.58      0  02:36       5.709     0.000
  YS02001625              1.43   1505.33      0  02:43       5.545     0.000
  YS02001629              0.64    686.98      0  02:40       1.070     0.000
  YS02001633              0.33   4138.92      0  02:36       1.904     0.000
  YS02001641              0.01      0.78      0  01:56       0.000     0.000
  YS02001644              1.03   7259.75      0  02:36       8.763     0.000
  YS02001647              0.01      1.19      0  01:56       0.000     0.000
  YS02001649              0.40   2389.70      0  02:39       2.159     0.000
  YS02001652              0.01      0.01      0  01:56       0.000     0.000
  YS02001655              0.21    303.14      0  02:33       0.200     0.000
  YS02001658              0.17     52.22      0  02:33       0.031     0.000
  YS02001661              0.01      0.98      0  02:27       0.000     0.000
  YS02001664              0.17   2478.99      0  02:36       0.676     0.000
  YS02001745              0.01     61.48      0  02:36       0.001     0.000
  YS02001748              0.08    762.53      0  02:36       0.114     0.000
  YS02001751              0.01      0.75      0  02:32       0.000     0.000
  YS02001754              0.01      0.81      0  01:56       0.000     0.000
  YS02001757              0.15    648.79      0  02:37       0.227     0.000
  YS02001759              0.18   2261.26      0  02:36       0.657     0.000
  YS02001762              0.04      9.54      0  02:54       0.000     0.000
  YS02001765              0.01     11.18      0  02:54       0.000     0.000
  YS02001767              0.01      8.97      0  02:54       0.000     0.000
  YS02001770              0.50   6296.60      0  02:36       4.474     0.000
  YS02001774              0.01      2.24      0  01:56       0.000     0.000
  YS02001779              0.91    851.55      0  02:41       2.009     0.000
  YS02001882              0.01     11.14      0  01:24       0.000     0.000
  YS02001887              0.01      1.45      0  01:26       0.000     0.000
  YS02001890              0.18    431.18      0  01:26       0.155     0.000
  YS02001898              0.01    537.31      0  01:24       0.003     0.000
  YS02001907              0.41   1993.02      0  01:28       1.425     0.000
  YS02001910              0.01     67.99      0  01:24       0.000     0.000
  YS02001915              0.01    387.36      0  01:24       0.000     0.000
  YS02001918              0.01    285.66      0  01:25       0.007     0.000
  YS02001920              0.01     51.40      0  01:25       0.000     0.000
  YS02001923              0.01    905.30      0  01:25       0.002     0.000
  YS02001926              0.01    660.33      0  01:25       0.004     0.000
  YS02001929              0.01    920.23      0  01:25       0.007     0.000
  YS02006553              0.01      0.91      0  01:26       0.000     0.000
  YS02006558              0.01      1.52      0  01:26       0.000     0.000
  YS02163601              0.01      0.27      0  01:56       0.000     0.000
  YS02164001              0.01      1.10      0  01:56       0.000     0.000
  CC-storage              0.13    112.01      0  02:50       0.032     0.000
  
  
  **********************
  Storage Volume Summary
  **********************
  
  --------------------------------------------------------------------------------------------------
                         Average     Avg  Evap Exfil       Maximum     Max    Time of Max    Maximum
                          Volume    Pcnt  Pcnt  Pcnt        Volume    Pcnt     Occurrence    Outflow
  Storage Unit           1000 m3    Full  Loss  Loss       1000 m3    Full    days hr:min        LPS
  --------------------------------------------------------------------------------------------------
  CC-storage               2.962      46     0     0         6.410     100       0  02:50    1766.00
  JK-storage               0.060      21     0     0         0.168      58       0  02:33    1300.00
  
  
  ***********************
  Outfall Loading Summary
  ***********************
  
  -----------------------------------------------------------
                         Flow       Avg       Max       Total
                         Freq      Flow      Flow      Volume
  Outfall Node           Pcnt       LPS       LPS    10^6 ltr
  -----------------------------------------------------------
  CC-1                  56.10    683.00    683.00       7.539
  CC-2                  49.86    683.00    683.00       6.313
  JK-1                   4.24   1000.00   1000.00       0.781
  JK-2                  13.89   1000.00   1000.00       2.616
  WSC                   99.99    269.13    551.76       6.016
  -----------------------------------------------------------
  System                44.82   3635.13    551.76      23.265
  
  
  ********************
  Link Flow Summary
  ********************
  
  -----------------------------------------------------------------------------
                                 Maximum  Time of Max   Maximum    Max/    Max/
                                  |Flow|   Occurrence   |Veloc|    Full    Full
  Link                 Type          LPS  days hr:min     m/sec    Flow   Depth
  -----------------------------------------------------------------------------
  1                    CONDUIT    551.76     0  01:52      2.82    0.19    0.30
  WS02003060WS02003069 CONDUIT    551.08     0  01:50      1.64    0.22    0.34
  WS02003066WSF200     CONDUIT    534.60     0  01:49      2.85    0.09    0.22
  WS02003067WS02003066 CONDUIT    534.51     0  01:49      1.20    0.17    0.42
  WS02003069WS02003072 CONDUIT    550.84     0  01:51      1.37    0.27    0.39
  WS02003072WS02003073 CONDUIT    550.47     0  01:51      1.43    1.19    0.37
  WS02004401WS02004402 CONDUIT   1248.69     0  00:01      2.52    1.50    0.89
  WS02004402WS02004403 CONDUIT    929.44     0  00:01      2.21    1.34    0.91
  WS02004403WS02004404 CONDUIT    877.02     0  00:01      2.01    0.63    0.96
  WS02004404WS02004405 CONDUIT    827.31     0  00:01      2.30    8.11    0.98
  WS02004405WS02004406 CONDUIT    768.45     0  00:02      2.19    1.52    0.96
  WS02004406WS02004407 CONDUIT    537.52     0  01:47      1.04    0.24    0.63
  WS02004407WS02004409 CONDUIT    537.00     0  01:48      2.06    0.19    0.48
  WS02004409WS02004410 CONDUIT    536.24     0  01:48      1.39    0.69    0.67
  WS02004410WS02004411 CONDUIT    535.66     0  01:48      1.32    0.73    0.68
  WS02004411WS02004412 CONDUIT    535.13     0  01:49      1.28    0.76    0.69
  WS02004412WS02004413 CONDUIT    534.92     0  01:49      1.25    0.36    0.78
  WS02004413WS02003067 CONDUIT    534.41     0  01:49      1.11    0.23    0.59
  WS02006109WS02006110 CONDUIT   1446.81     0  00:00      2.88    2.78    1.00
  WS02006110WS02006113 CONDUIT    563.93     0  02:03      1.36    0.51    1.00
  WS02006111WS02006112 CONDUIT   2307.30     0  00:00      9.18    1.10    1.00
  WS02006112WS02006115 CONDUIT    953.54     0  00:00      1.24    0.56    1.00
  WS02006113WS02006111 CONDUIT   1180.41     0  00:00      2.46    1.41    1.00
  WS02006115WS02006116 CONDUIT   1264.47     0  00:00      1.74    1.62    1.00
  WS02006116WS02004401 CONDUIT   1786.04     0  00:00      2.94    2.46    0.86
  WS02006228WS02006109 CONDUIT    869.18     0  00:00      1.91    3.80    1.00
  WS02006229WS02006228 CONDUIT    550.10     0  02:03      1.09    1.82    1.00
  WS02006230WS02006229 CONDUIT    696.39     0  00:00      1.89   15.50    1.00
  WS02006231WS02006230 CONDUIT    577.29     0  03:08      1.91    8.76    1.00
  WS02006232WS02006231 CONDUIT    577.40     0  03:25      1.80    1.21    1.00
  WS02006234WS02006232 CONDUIT    575.96     0  03:25      1.50    1.17    1.00
  WS02006235WS02006234 CONDUIT    570.97     0  03:25      1.48    6.02    1.00
  WS02006238WS02006235 CONDUIT    456.92     0  03:27      1.71    1.02    1.00
  WS02006239WS02006238 CONDUIT    432.66     0  03:27      1.12    1.38    1.00
  WS02006240WS02006239 CONDUIT    430.19     0  03:27      1.15    1.35    1.00
  WS02006242WS02006240 CONDUIT    426.55     0  03:57      1.11    1.69    1.00
  WS02006243WS02006242 CONDUIT    426.93     0  03:27      1.19    0.91    1.00
  WS02006245WS02006243 CONDUIT    426.79     0  03:27      1.34    1.26    1.00
  WS02006247WS02006245 CONDUIT    426.61     0  03:27      1.39    3.38    1.00
  WS02006248WS02006247 CONDUIT    426.87     0  03:27      1.43    0.93    1.00
  WS02006249WS02006248 CONDUIT    427.20     0  03:27      1.40    2.34    1.00
  WS02006251WS02006249 CONDUIT    493.55     0  01:26      1.87    1.42    1.00
  WS02006252WS02006251 CONDUIT    407.06     0  00:11     25.61    1.49    1.00
  WS02006256WS02006235 CONDUIT    286.74     0  00:06      4.12    3.03    1.00
  WSF200WS02003060     CONDUIT    534.87     0  01:50      2.06    0.12    0.28
  YS02001580YS02001583 CONDUIT     59.60     0  01:25      0.46    0.23    1.00
  YS02001583YS02001586 CONDUIT     85.14     0  01:25      0.35    0.13    1.00
  YS02001586YS02001590 CONDUIT    326.12     0  01:56      1.25    0.57    1.00
  YS02001590YS02001593 CONDUIT    325.76     0  01:56      1.15    2.04    1.00
  YS02001593YS02001596 CONDUIT    319.83     0  01:56      1.73    0.51    1.00
  YS02001596YS02001600 CONDUIT    319.09     0  01:56      1.27    0.62    1.00
  YS02001600YS02001601 CONDUIT    318.44     0  02:27      1.13    0.55    1.00
  YS02001601YS02001602 CONDUIT    500.75     0  01:25      1.77    1.81    1.00
  YS02001602YS02001605 CONDUIT    500.57     0  01:25      1.77   10.59    1.00
  YS02001605YS02001607 CONDUIT    500.14     0  01:25      1.77    2.74    1.00
  YS02001607YS02001610 CONDUIT    499.40     0  01:25      0.68    0.47    1.00
  YS02001610YS02001613 CONDUIT    618.47     0  02:28      0.79    0.71    1.00
  YS02001613YS02001616 CONDUIT    618.47     0  02:28      0.79    0.53    1.00
  YS02001616YS02001619 CONDUIT    618.78     0  02:28      0.79    1.07    1.00
  YS02001619YS02001622 CONDUIT   1054.20     0  02:41      1.50    1.55    1.00
  YS02001622YS02001625 CONDUIT   1053.82     0  02:43      1.34    0.56    1.00
  YS02001625YS02001629 CONDUIT    931.44     0  01:38      1.19    0.44    1.00
  YS02001629YS02163301 CONDUIT   1139.25     0  02:40      1.45    1.40    1.00
  YS02001633YS02163601 CONDUIT   1311.40     0  01:39      1.67    1.38    1.00
  YS02001641YS02001644 CONDUIT   1313.64     0  01:39      1.67    4.25    1.00
  YS02001644YS02001647 CONDUIT   1634.74     0  01:39      2.12    0.96    1.00
  YS02001647YS02001649 CONDUIT   1627.43     0  01:40      2.30    0.86    1.00
  YS02001649YS02001757 CONDUIT   1866.57     0  01:37      2.51    1.13    1.00
  YS02001652YS02001649 CONDUIT   2429.48     0  02:30      3.09    1.20    1.00
  YS02001655YS02001652 CONDUIT   2429.38     0  02:32      3.09    1.18    1.00
  YS02001658YS02001655 CONDUIT   2731.29     0  02:37      3.48    1.16    1.00
  YS02001661YS02001658 CONDUIT   2783.86     0  02:33      3.54    1.09    1.00
  YS02001664YS02001661 CONDUIT   2783.92     0  02:32      3.54    0.87    1.00
  YS02001745YS02001748 CONDUIT   3116.59     0  02:36      3.97    1.20    1.00
  YS02001748YS02001751 CONDUIT   2353.41     0  02:37      3.00    1.19    1.00
  YS02001751YS02001754 CONDUIT   2353.41     0  02:37      3.00    1.13    1.00
  YS02001754YS02001757 CONDUIT   2353.41     0  02:37      3.00    0.95    1.00
  YS02001757CaochengTiaoxuchi CONDUIT   2782.39     0  01:58      3.61    1.20    1.00
  YS02001759YS02001757 CONDUIT   1462.48     0  02:39      1.86    1.04    1.00
  YS02001762YS02001759 CONDUIT    723.75     0  02:32      0.92    0.83    1.00
  YS02001765YS02001762 CONDUIT    722.35     0  02:39      0.92    0.68    1.00
  YS02001767YS02001765 CONDUIT    723.00     0  02:39      0.92    0.91    1.00
  YS02001770YS02001767 CONDUIT    722.82     0  02:39      0.92    2.86    1.00
  YS02001774YS02001770 CONDUIT    852.44     0  02:41      1.09    0.54    1.00
  YS02001779YS02001774 CONDUIT    851.89     0  02:41      1.08    0.43    1.00
  YS02001783YS02001784 CONDUIT   1169.94     0  01:26      2.33    1.61    1.00
  YS02001784YS02001785 CONDUIT   1170.15     0  01:26      2.33    2.72    1.00
  YS02001786YS02001788 CONDUIT   1168.94     0  01:25      2.52    2.25    0.91
  YS02001788YS02001790 CONDUIT   1223.44     0  01:25      2.78    0.90    0.84
  YS02001790YS02001791 CONDUIT   1289.80     0  01:29      3.42    1.40    0.70
  YS02001791YS02001793 CONDUIT   1247.41     0  01:25      6.80    0.54    0.41
  YS02001793JiankangQianchi CONDUIT   1246.42     0  01:25      2.50    0.10    0.61
  YS02001882YS02001884 CONDUIT    155.82     0  01:24      0.24    0.18    1.00
  YS02001884YS02001887 CONDUIT    261.47     0  01:24      0.33    0.35    1.00
  YS02001887YS02001890 CONDUIT    946.92     0  01:26      1.21    1.62    1.00
  YS02001890YS02001895 CONDUIT    756.25     0  01:24      0.96    0.35    1.00
  YS02001895YS02001898 CONDUIT    690.00     0  01:24      0.88    1.20    1.00
  YS02001898YS02001901 CONDUIT    522.03     0  01:24      0.66    0.34    1.00
  YS02001901YS02001904 CONDUIT    523.23     0  01:24      0.67    0.81    1.00
  YS02001904YS02001907 CONDUIT    525.38     0  01:24      0.67    0.18    1.00
  YS02001907YS02006553 CONDUIT    786.35     0  01:50      0.87    0.93    1.00
  YS02001910YS02001907 CONDUIT   1480.27     0  01:28      1.88    0.83    1.00
  YS02001915YS02001910 CONDUIT   1479.89     0  01:28      1.88    0.73    1.00
  YS02001918YS02001915 CONDUIT   1084.71     0  01:24      1.38    0.60    1.00
  YS02001920YS02001918 CONDUIT   1007.53     0  01:25      1.28    0.97    1.00
  YS02001923YS02001920 CONDUIT   1036.51     0  01:25      1.42    0.47    1.00
  YS02001926YS02001923 CONDUIT   1250.29     0  01:25      1.74    1.79    1.00
  YS02001929YS02001926 CONDUIT    756.34     0  01:25      1.40    0.36    1.00
  YS02006553YS02006556 CONDUIT    786.12     0  01:50      1.00    0.67    1.00
  YS02006556YS02006558 CONDUIT    786.82     0  01:50      1.00    0.62    1.00
  YS02006558YS02006561 CONDUIT   1242.24     0  01:24      4.39    2.75    1.00
  YS02006561YS02001783 CONDUIT   1169.67     0  01:26      2.33    0.61    1.00
  YS02163301YS02001633 CONDUIT   1139.13     0  02:39      1.45    1.07    1.00
  YS02163601YS02164001 CONDUIT   1311.64     0  01:39      1.67    1.16    1.00
  YS02164001YS02001641 CONDUIT   1312.79     0  01:39      1.67    1.79    1.00
  CC-R1                PUMP       683.00     0  00:06              1.00
  CC-R2                PUMP       683.00     0  00:06              1.00
  CC-S1                PUMP       200.00     0  00:11              1.00
  CC-S2                PUMP       200.00     0  00:06              1.00
  JK-R1                PUMP      1000.00     0  00:06              1.00
  JK-R2                PUMP      1000.00     0  01:23              1.00
  JK-S                 PUMP       300.00     0  00:06              1.00
  
  
  ***************************
  Flow Classification Summary
  ***************************
  
  -------------------------------------------------------------------------------------
                      Adjusted    ---------- Fraction of Time in Flow Class ---------- 
                       /Actual         Up    Down  Sub   Sup   Up    Down  Norm  Inlet 
  Conduit               Length    Dry  Dry   Dry   Crit  Crit  Crit  Crit  Ltd   Ctrl  
  -------------------------------------------------------------------------------------
  1                       1.00   0.00  0.00  0.00  0.00  1.00  0.00  0.00  0.49  0.00
  WS02003060WS02003069    1.00   0.00  0.00  0.00  0.97  0.03  0.00  0.00  0.60  0.00
  WS02003066WSF200        1.00   0.04  0.00  0.00  0.00  0.96  0.00  0.00  0.88  0.00
  WS02003067WS02003066    1.00   0.02  0.02  0.00  0.96  0.00  0.00  0.00  0.00  0.00
  WS02003069WS02003072    1.00   0.00  0.00  0.00  1.00  0.00  0.00  0.00  0.65  0.00
  WS02003072WS02003073    1.00   0.00  0.00  0.00  0.00  0.00  0.00  1.00  0.00  0.00
  WS02004401WS02004402    1.00   0.00  0.00  0.00  1.00  0.00  0.00  0.00  0.00  0.00
  WS02004402WS02004403    1.00   0.00  0.00  0.00  1.00  0.00  0.00  0.00  0.00  0.00
  WS02004403WS02004404    1.00   0.00  0.00  0.00  1.00  0.00  0.00  0.00  0.00  0.00
  WS02004404WS02004405    1.00   0.00  0.00  0.00  1.00  0.00  0.00  0.00  0.01  0.00
  WS02004405WS02004406    1.00   0.00  0.00  0.00  1.00  0.00  0.00  0.00  0.00  0.00
  WS02004406WS02004407    1.00   0.00  0.00  0.00  1.00  0.00  0.00  0.00  0.00  0.00
  WS02004407WS02004409    1.00   0.00  0.00  0.00  0.99  0.00  0.00  0.00  0.99  0.00
  WS02004409WS02004410    1.00   0.00  0.00  0.00  1.00  0.00  0.00  0.00  0.00  0.00
  WS02004410WS02004411    1.00   0.00  0.00  0.00  1.00  0.00  0.00  0.00  0.00  0.00
  WS02004411WS02004412    1.00   0.00  0.00  0.00  1.00  0.00  0.00  0.00  0.00  0.00
  WS02004412WS02004413    1.00   0.00  0.00  0.00  0.99  0.00  0.00  0.00  0.00  0.00
  WS02004413WS02003067    1.00   0.01  0.01  0.00  0.00  0.00  0.98  0.00  0.00  0.00
  WS02006109WS02006110    1.00   0.00  0.00  0.00  1.00  0.00  0.00  0.00  0.00  0.00
  WS02006110WS02006113    1.00   0.00  0.00  0.00  1.00  0.00  0.00  0.00  0.00  0.00
  WS02006111WS02006112    1.00   0.00  0.00  0.00  1.00  0.00  0.00  0.00  1.00  0.00
  WS02006112WS02006115    1.00   0.00  0.00  0.00  1.00  0.00  0.00  0.00  0.00  0.00
  WS02006113WS02006111    1.00   0.00  0.00  0.00  0.00  1.00  0.00  0.00  0.16  0.00
  WS02006115WS02006116    1.00   0.00  0.00  0.00  1.00  0.00  0.00  0.00  0.00  0.00
  WS02006116WS02004401    1.00   0.00  0.00  0.00  1.00  0.00  0.00  0.00  0.00  0.00
  WS02006228WS02006109    1.00   0.00  0.00  0.00  1.00  0.00  0.00  0.00  0.00  0.00
  WS02006229WS02006228    1.00   0.00  0.00  0.00  1.00  0.00  0.00  0.00  0.00  0.00
  WS02006230WS02006229    1.00   0.00  0.00  0.00  1.00  0.00  0.00  0.00  0.02  0.00
  WS02006231WS02006230    1.00   0.00  0.00  0.00  0.51  0.00  0.49  0.00  0.00  0.00
  WS02006232WS02006231    1.00   0.00  0.00  0.00  0.98  0.00  0.02  0.00  0.00  0.00
  WS02006234WS02006232    1.00   0.00  0.00  0.00  1.00  0.00  0.00  0.00  0.07  0.00
  WS02006235WS02006234    1.00   0.00  0.00  0.00  0.87  0.00  0.12  0.00  0.00  0.00
  WS02006238WS02006235    1.00   0.00  0.00  0.00  1.00  0.00  0.00  0.00  0.00  0.00
  WS02006239WS02006238    1.00   0.00  0.00  0.00  1.00  0.00  0.00  0.00  0.24  0.00
  WS02006240WS02006239    1.00   0.01  0.00  0.00  0.79  0.00  0.00  0.20  0.02  0.00
  WS02006242WS02006240    1.00   0.02  0.00  0.00  0.98  0.00  0.01  0.00  0.00  0.00
  WS02006243WS02006242    1.00   0.02  0.00  0.00  0.97  0.00  0.00  0.01  0.52  0.00
  WS02006245WS02006243    1.00   0.01  0.00  0.00  0.86  0.00  0.00  0.13  0.00  0.00
  WS02006247WS02006245    1.00   0.01  0.00  0.00  0.96  0.00  0.00  0.03  0.00  0.00
  WS02006248WS02006247    1.00   0.01  0.00  0.00  0.97  0.00  0.00  0.02  0.46  0.00
  WS02006249WS02006248    1.00   0.01  0.00  0.00  0.69  0.00  0.30  0.00  0.00  0.00
  WS02006251WS02006249    1.00   0.01  0.00  0.00  0.99  0.01  0.00  0.00  0.48  0.00
  WS02006252WS02006251    1.00   0.02  0.26  0.00  0.16  0.00  0.56  0.00  0.00  0.00
  WS02006256WS02006235    1.00   0.00  0.00  0.00  0.99  0.01  0.00  0.00  0.01  0.00
  WSF200WS02003060        1.00   0.00  0.04  0.00  0.26  0.70  0.00  0.00  0.58  0.00
  YS02001580YS02001583    1.00   0.18  0.38  0.00  0.44  0.00  0.00  0.00  0.59  0.00
  YS02001583YS02001586    1.00   0.27  0.18  0.00  0.55  0.00  0.00  0.00  0.59  0.00
  YS02001586YS02001590    1.00   0.12  0.00  0.00  0.68  0.02  0.00  0.18  0.28  0.00
  YS02001590YS02001593    1.00   0.12  0.00  0.00  0.36  0.00  0.51  0.00  0.00  0.00
  YS02001593YS02001596    1.00   0.12  0.00  0.00  0.39  0.01  0.00  0.48  0.01  0.00
  YS02001596YS02001600    1.00   0.12  0.00  0.00  0.43  0.01  0.00  0.44  0.03  0.00
  YS02001600YS02001601    1.00   0.12  0.00  0.00  0.87  0.00  0.00  0.00  0.54  0.00
  YS02001601YS02001602    1.00   0.12  0.00  0.00  0.88  0.00  0.00  0.00  0.00  0.00
  YS02001602YS02001605    1.00   0.12  0.00  0.00  0.88  0.00  0.00  0.00  0.00  0.00
  YS02001605YS02001607    1.00   0.12  0.00  0.00  0.88  0.00  0.00  0.00  0.00  0.00
  YS02001607YS02001610    1.00   0.12  0.00  0.00  0.87  0.00  0.00  0.00  0.00  0.00
  YS02001610YS02001613    1.00   0.12  0.00  0.00  0.88  0.00  0.00  0.00  0.00  0.00
  YS02001613YS02001616    1.00   0.12  0.00  0.00  0.88  0.00  0.00  0.00  0.00  0.00
  YS02001616YS02001619    1.00   0.12  0.00  0.00  0.88  0.00  0.00  0.00  0.00  0.00
  YS02001619YS02001622    1.00   0.12  0.00  0.00  0.87  0.00  0.00  0.00  0.29  0.00
  YS02001622YS02001625    1.00   0.12  0.00  0.00  0.87  0.00  0.00  0.00  0.01  0.00
  YS02001625YS02001629    1.00   0.12  0.01  0.00  0.43  0.00  0.44  0.00  0.00  0.00
  YS02001629YS02163301    1.00   0.13  0.00  0.00  0.87  0.00  0.00  0.00  0.00  0.00
  YS02001633YS02163601    1.00   0.12  0.00  0.00  0.88  0.00  0.00  0.00  0.00  0.00
  YS02001641YS02001644    1.00   0.12  0.00  0.00  0.88  0.00  0.00  0.00  0.01  0.00
  YS02001644YS02001647    1.00   0.12  0.01  0.00  0.87  0.00  0.00  0.00  0.00  0.00
  YS02001647YS02001649    1.00   0.13  0.00  0.00  0.65  0.22  0.00  0.00  0.54  0.00
  YS02001649YS02001757    1.00   0.00  0.13  0.00  0.64  0.23  0.00  0.00  0.09  0.00
  YS02001652YS02001649    1.00   0.13  0.00  0.00  0.87  0.01  0.00  0.00  0.52  0.00
  YS02001655YS02001652    1.00   0.13  0.00  0.00  0.46  0.00  0.00  0.41  0.04  0.00
  YS02001658YS02001655    1.00   0.13  0.00  0.00  0.77  0.10  0.00  0.00  0.57  0.00
  YS02001661YS02001658    1.00   0.13  0.00  0.00  0.56  0.32  0.00  0.00  0.59  0.00
  YS02001664YS02001661    1.00   0.12  0.00  0.00  0.74  0.14  0.00  0.00  0.75  0.00
  YS02001745YS02001748    1.00   0.12  0.00  0.00  0.32  0.01  0.00  0.55  0.04  0.00
  YS02001748YS02001751    1.00   0.12  0.00  0.00  0.78  0.10  0.00  0.00  0.55  0.00
  YS02001751YS02001754    1.00   0.12  0.00  0.00  0.43  0.01  0.00  0.43  0.04  0.00
  YS02001754YS02001757    1.00   0.00  0.12  0.00  0.87  0.00  0.00  0.00  0.53  0.00
  YS02001757CaochengTiaoxuchi    1.00   0.00  0.00  0.00  0.91  0.09  0.00  0.00  0.64  0.00
  YS02001759YS02001757    1.00   0.00  0.12  0.00  0.87  0.01  0.00  0.00  0.48  0.00
  YS02001762YS02001759    1.00   0.12  0.00  0.00  0.88  0.00  0.00  0.00  0.00  0.00
  YS02001765YS02001762    1.00   0.12  0.00  0.00  0.88  0.00  0.00  0.00  0.50  0.00
  YS02001767YS02001765    1.00   0.12  0.00  0.00  0.88  0.00  0.00  0.00  0.00  0.00
  YS02001770YS02001767    1.00   0.12  0.00  0.00  0.88  0.00  0.00  0.00  0.00  0.00
  YS02001774YS02001770    1.00   0.12  0.00  0.00  0.72  0.00  0.15  0.00  0.00  0.00
  YS02001779YS02001774    1.00   0.12  0.26  0.00  0.62  0.00  0.00  0.00  0.51  0.00
  YS02001783YS02001784    1.00   0.15  0.00  0.00  0.84  0.01  0.00  0.00  0.57  0.00
  YS02001784YS02001785    1.00   0.16  0.00  0.00  0.84  0.00  0.00  0.00  0.42  0.00
  YS02001786YS02001788    1.00   0.16  0.00  0.00  0.57  0.27  0.00  0.00  0.00  0.00
  YS02001788YS02001790    1.00   0.16  0.00  0.00  0.22  0.62  0.00  0.00  0.62  0.00
  YS02001790YS02001791    1.00   0.17  0.00  0.00  0.02  0.82  0.00  0.00  0.17  0.00
  YS02001791YS02001793    1.00   0.17  0.00  0.00  0.00  0.82  0.00  0.00  0.01  0.00
  YS02001793JiankangQianchi    1.00   0.00  0.18  0.00  0.74  0.08  0.00  0.00  0.83  0.00
  YS02001882YS02001884    1.00   0.13  0.00  0.00  0.86  0.00  0.00  0.00  0.00  0.00
  YS02001884YS02001887    1.00   0.13  0.00  0.00  0.87  0.00  0.00  0.00  0.00  0.00
  YS02001887YS02001890    1.00   0.12  0.00  0.00  0.87  0.00  0.00  0.00  0.00  0.00
  YS02001890YS02001895    1.00   0.12  0.01  0.00  0.86  0.00  0.00  0.00  0.00  0.00
  YS02001895YS02001898    1.00   0.14  0.00  0.00  0.84  0.00  0.02  0.00  0.00  0.00
  YS02001898YS02001901    1.00   0.14  0.00  0.00  0.86  0.00  0.00  0.00  0.00  0.00
  YS02001901YS02001904    1.00   0.14  0.00  0.00  0.86  0.00  0.00  0.00  0.00  0.00
  YS02001904YS02001907    1.00   0.12  0.02  0.00  0.86  0.00  0.00  0.00  0.00  0.00
  YS02001907YS02006553    1.00   0.12  0.01  0.00  0.87  0.00  0.00  0.00  0.00  0.00
  YS02001910YS02001907    1.00   0.12  0.00  0.00  0.87  0.00  0.00  0.01  0.01  0.00
  YS02001915YS02001910    1.00   0.12  0.00  0.00  0.86  0.02  0.00  0.00  0.01  0.00
  YS02001918YS02001915    1.00   0.12  0.02  0.00  0.86  0.00  0.00  0.00  0.71  0.00
  YS02001920YS02001918    1.00   0.13  0.01  0.00  0.86  0.00  0.00  0.00  0.00  0.00
  YS02001923YS02001920    1.00   0.13  0.00  0.00  0.87  0.00  0.00  0.00  0.77  0.00
  YS02001926YS02001923    1.00   0.12  0.01  0.00  0.11  0.00  0.76  0.00  0.00  0.00
  YS02001929YS02001926    1.00   0.12  0.00  0.00  0.88  0.00  0.00  0.00  0.80  0.00
  YS02006553YS02006556    1.00   0.13  0.00  0.00  0.87  0.00  0.00  0.00  0.00  0.00
  YS02006556YS02006558    1.00   0.12  0.00  0.00  0.87  0.00  0.00  0.00  0.00  0.00
  YS02006558YS02006561    1.00   0.15  0.00  0.00  0.10  0.74  0.00  0.00  0.17  0.00
  YS02006561YS02001783    1.00   0.15  0.00  0.00  0.26  0.59  0.00  0.00  0.68  0.00
  YS02163301YS02001633    1.00   0.12  0.00  0.00  0.87  0.00  0.00  0.00  0.00  0.00
  YS02163601YS02164001    1.00   0.12  0.00  0.00  0.87  0.00  0.00  0.00  0.00  0.00
  YS02164001YS02001641    1.00   0.12  0.00  0.00  0.87  0.00  0.00  0.00  0.00  0.00
  
  
  *************************
  Conduit Surcharge Summary
  *************************
  
  ----------------------------------------------------------------------------
                                                           Hours        Hours 
                         --------- Hours Full --------   Above Full   Capacity
  Conduit                Both Ends  Upstream  Dnstream   Normal Flow   Limited
  ----------------------------------------------------------------------------
  WS02003072WS02003073        0.01      0.01      0.01      1.05         0.01
  WS02004401WS02004402        0.01      0.01      0.01      0.01         0.01
  WS02004402WS02004403        0.01      0.01      0.01      0.02         0.01
  WS02004403WS02004404        0.01      0.01      0.01      0.01         0.01
  WS02004404WS02004405        0.01      0.01      0.01      3.66         0.01
  WS02004405WS02004406        0.01      0.01      0.01      0.54         0.01
  WS02006109WS02006110        0.70      0.70      2.70      0.78         0.01
  WS02006110WS02006113        0.01      0.01      2.66      0.01         0.01
  WS02006111WS02006112        0.01      0.01      2.95      0.01         0.01
  WS02006112WS02006115        0.01      0.01      0.79      0.01         0.01
  WS02006113WS02006111        0.01      0.01      0.01      0.01         0.01
  WS02006115WS02006116        0.01      0.01      0.01      0.01         0.01
  WS02006116WS02004401        0.01      0.01      0.01      0.02         0.01
  WS02006228WS02006109        2.60      2.69      2.61      3.09         2.60
  WS02006229WS02006228        2.59      2.63      2.59      2.92         2.57
  WS02006230WS02006229        2.76      2.85      2.77      3.92         2.76
  WS02006231WS02006230        0.71      0.71      0.86      3.67         0.01
  WS02006232WS02006231        0.81      0.81      2.68      0.89         0.01
  WS02006234WS02006232        2.47      2.48      2.68      0.86         0.90
  WS02006235WS02006234        1.21      1.22      2.57      3.57         0.03
  WS02006238WS02006235        2.61      2.61      2.70      0.01         0.01
  WS02006239WS02006238        2.64      2.68      2.65      2.84         2.40
  WS02006240WS02006239        2.60      2.63      2.60      2.81         2.30
  WS02006242WS02006240        2.62      2.62      2.75      2.98         0.01
  WS02006243WS02006242        2.63      2.63      2.69      0.01         0.05
  WS02006245WS02006243        2.62      2.63      2.62      2.11         1.94
  WS02006247WS02006245        2.62      2.65      2.62      3.27         2.60
  WS02006248WS02006247        2.62      2.62      2.64      0.01         0.07
  WS02006249WS02006248        2.60      2.60      2.62      3.17         0.01
  WS02006251WS02006249        2.62      2.63      2.62      2.91         2.49
  WS02006252WS02006251        3.00      3.00      3.05      3.01         0.01
  WS02006256WS02006235        3.54      3.62      6.09      1.07         0.04
  YS02001580YS02001583        1.68      1.69      1.73      0.01         0.01
  YS02001583YS02001586        1.69      1.69      1.81      0.01         0.01
  YS02001586YS02001590        1.82      1.82      1.89      0.01         0.01
  YS02001590YS02001593        1.89      1.89      1.91      1.89         0.01
  YS02001593YS02001596        1.90      1.90      2.00      0.01         0.01
  YS02001596YS02001600        2.04      2.04      2.12      0.01         0.01
  YS02001600YS02001601        2.16      2.16      2.34      0.01         0.01
  YS02001601YS02001602        2.29      2.29      2.36      2.09         0.01
  YS02001602YS02001605        2.26      2.26      2.29      2.81         0.01
  YS02001605YS02001607        2.23      2.26      2.25      2.22         2.14
  YS02001607YS02001610        1.90      1.90      1.93      0.01         0.01
  YS02001610YS02001613        1.90      1.90      1.93      0.01         0.01
  YS02001613YS02001616        1.86      1.86      1.90      0.01         0.01
  YS02001616YS02001619        1.84      1.84      1.86      0.60         0.53
  YS02001619YS02001622        1.84      1.84      1.85      1.81         1.69
  YS02001622YS02001625        1.85      1.85      2.04      0.01         0.01
  YS02001625YS02001629        1.74      1.74      2.04      0.01         0.01
  YS02001629YS02163301        2.05      2.05      2.07      0.71         0.29
  YS02001633YS02163601        2.10      2.10      2.15      0.41         0.43
  YS02001641YS02001644        2.04      2.07      2.04      2.38         1.97
  YS02001644YS02001647        1.68      1.68      2.04      0.01         0.01
  YS02001647YS02001649        1.68      1.68      1.82      0.01         0.01
  YS02001649YS02001757        1.81      1.82      1.89      0.37         0.18
  YS02001652YS02001649        1.65      1.65      1.82      0.26         0.26
  YS02001655YS02001652        1.42      1.42      1.62      0.25         0.25
  YS02001658YS02001655        1.14      1.14      1.42      0.21         0.21
  YS02001661YS02001658        0.61      0.61      1.14      0.19         0.19
  YS02001664YS02001661        0.39      0.39      0.73      0.01         0.01
  YS02001745YS02001748        0.40      0.40      1.03      0.05         0.05
  YS02001748YS02001751        1.09      1.09      1.32      0.11         0.11
  YS02001751YS02001754        1.32      1.32      1.54      0.10         0.10
  YS02001754YS02001757        1.60      1.60      1.89      0.01         0.01
  YS02001757CaochengTiaoxuchi        1.87      1.89      2.42      1.12         0.95
  YS02001759YS02001757        1.80      1.80      1.89      0.11         0.04
  YS02001762YS02001759        1.77      1.77      1.80      0.01         0.01
  YS02001765YS02001762        1.73      1.73      1.77      0.01         0.01
  YS02001767YS02001765        1.70      1.70      1.73      0.01         0.01
  YS02001770YS02001767        1.70      1.70      1.70      1.52         0.87
  YS02001774YS02001770        1.68      1.68      1.75      0.01         0.01
  YS02001779YS02001774        1.54      1.54      1.75      0.01         0.01
  YS02001783YS02001784        0.60      0.62      0.60      0.77         0.60
  YS02001784YS02001785        0.49      0.60      0.49      1.06         0.49
  YS02001786YS02001788        0.01      0.49      0.01      0.88         0.01
  YS02001790YS02001791        0.01      0.01      0.01      0.58         0.01
  YS02001793JiankangQianchi        0.01      0.01      2.86      0.01         0.01
  YS02001882YS02001884        0.56      0.56      0.57      0.01         0.01
  YS02001884YS02001887        0.60      0.60      0.62      0.01         0.01
  YS02001887YS02001890        0.63      0.63      0.64      0.15         0.01
  YS02001890YS02001895        0.55      0.55      0.66      0.01         0.01
  YS02001895YS02001898        0.54      0.54      0.55      0.01         0.01
  YS02001898YS02001901        0.55      0.55      0.60      0.01         0.01
  YS02001901YS02001904        0.59      0.59      0.60      0.01         0.01
  YS02001904YS02001907        0.59      0.59      0.85      0.01         0.01
  YS02001907YS02006553        1.09      1.09      1.17      0.01         0.01
  YS02001910YS02001907        0.65      0.65      0.82      0.01         0.01
  YS02001915YS02001910        0.56      0.56      0.65      0.01         0.01
  YS02001918YS02001915        0.47      0.47      0.56      0.01         0.01
  YS02001920YS02001918        0.47      0.47      0.49      0.01         0.01
  YS02001923YS02001920        0.42      0.42      0.49      0.01         0.01
  YS02001926YS02001923        0.12      0.12      0.15      0.01         0.01
  YS02001929YS02001926        0.01      0.01      0.15      0.01         0.01
  YS02006553YS02006556        0.74      0.74      0.85      0.01         0.01
  YS02006556YS02006558        0.79      0.79      0.88      0.01         0.01
  YS02006558YS02006561        0.51      0.73      0.51      1.00         0.51
  YS02006561YS02001783        0.44      0.44      0.62      0.01         0.01
  YS02163301YS02001633        2.07      2.07      2.12      0.34         0.01
  YS02163601YS02164001        2.06      2.06      2.15      0.30         0.01
  YS02164001YS02001641        2.06      2.06      2.07      1.13         1.04
  
  
  ***************
  Pumping Summary
  ***************
  
  ---------------------------------------------------------------------------------------------------------
                                                  Min       Avg       Max     Total     Power    % Time Off
                        Percent   Number of      Flow      Flow      Flow    Volume     Usage    Pump Curve
  Pump                 Utilized   Start-Ups       LPS       LPS       LPS  10^6 ltr     Kw-hr    Low   High
  ---------------------------------------------------------------------------------------------------------
  CC-R1                   38.36          24      0.00    683.00    683.00     7.545    144.85    0.0   55.7
  CC-R2                   32.38          57      0.00    683.00    683.00     6.370    123.66    0.0   59.3
  CC-S1                   40.34          64      0.00    200.00    200.00     2.324     11.47    0.0   30.0
  CC-S2                   38.62          16      0.00    200.00    200.00     2.225     10.80    0.0   31.3
  JK-R1                    2.70          27      0.00   1000.00   1000.00     0.778      6.08    0.0    0.0
  JK-R2                    9.08          91      0.00   1000.00   1000.00     2.614     16.58    0.0    0.0
  JK-S                    13.44          81      0.00    300.00    300.00     1.161     22.87    0.0    0.0
  

  Analysis begun on:  Wed Sep  6 16:01:13 2023
  Analysis ended on:  Wed Sep  6 16:01:51 2023
  Total elapsed time: 00:00:38