
  OWA STORM WATER MANAGEMENT MODEL - VERSION v5.1.14 (OWA 2022-07-31)
  --------------------------------------------------------------

  WARNING 04: minimum elevation drop used for Conduit WS02004404WS02004405
  WARNING 03: negative offset ignored for Link YS02001904YS02001907
  
  *********************************************************
  NOTE: The summary statistics displayed in this report are
  based on results found at every computational time step,  
  not just on results from each reporting time step.
  *********************************************************
  
  ****************
  Analysis Options
  ****************
  Flow Units ............... LPS
  Process Models:
    Rainfall/Runoff ........ YES
    RDII ................... NO
    Snowmelt ............... NO
    Groundwater ............ NO
    Flow Routing ........... YES
    Ponding Allowed ........ NO
    Water Quality .......... NO
  Infiltration Method ...... HORTON
  Flow Routing Method ...... DYNWAVE
  Surcharge Method ......... EXTRAN
  Starting Date ............ 08/28/2015 08:00:00
  Ending Date .............. 08/28/2015 16:00:00
  Antecedent Dry Days ...... 8.0
  Report Time Step ......... 00:01:00
  Wet Time Step ............ 00:01:00
  Dry Time Step ............ 00:01:00
  Routing Time Step ........ 30.00 sec
  Variable Time Step ....... YES
  Maximum Trials ........... 8
  Number of Threads ........ 4
  Head Tolerance ........... 0.001500 m
  
  
  **************************        Volume         Depth
  Runoff Quantity Continuity     hectare-m            mm
  **************************     ---------       -------
  Initial LID Storage ......         0.072         1.184
  Total Precipitation ......         5.410        89.304
  Evaporation Loss .........         0.000         0.000
  Infiltration Loss ........         0.215         3.547
  Surface Runoff ...........         4.263        70.377
  Final Storage ............         1.005        16.595
  Continuity Error (%) .....        -0.035
  
  
  **************************        Volume        Volume
  Flow Routing Continuity        hectare-m      10^6 ltr
  **************************     ---------     ---------
  Dry Weather Inflow .......         0.630         6.296
  Wet Weather Inflow .......         4.263        42.632
  Groundwater Inflow .......         0.000         0.000
  RDII Inflow ..............         0.000         0.000
  External Inflow ..........         0.105         1.045
  External Outflow .........         2.690        26.898
  Flooding Loss ............         2.304        23.042
  Evaporation Loss .........         0.000         0.000
  Exfiltration Loss ........         0.000         0.000
  Initial Stored Volume ....         0.303         3.031
  Final Stored Volume ......         0.320         3.202
  Continuity Error (%) .....        -0.259
  
  
  *************************
  Highest Continuity Errors
  *************************
  Node YS02001583 (-13.56%)
  Node YS02001884 (5.26%)
  Node WS02006252 (-1.83%)
  Node HS02004842 (1.33%)
  
  
  ***************************
  Time-Step Critical Elements
  ***************************
  Link WS02006280WS02006229 (48.32%)
  Link WS02006252WS02006251 (15.33%)
  Link WS02003066WSF200 (8.86%)
  Link WS02006238WS02006235 (5.32%)
  Link WS02004404WS02004405 (4.63%)
  
  
  ********************************
  Highest Flow Instability Indexes
  ********************************
  Link WS02006238WS02006235 (31)
  Link WS02004404WS02004405 (30)
  Link WS02006252WS02006251 (28)
  Link WS02006229WS02006228 (27)
  Link WS02006113WS02006111 (27)
  
  
  *************************
  Routing Time Step Summary
  *************************
  Minimum Time Step           :     0.00 sec
  Average Time Step           :     2.48 sec
  Maximum Time Step           :     7.27 sec
  Percent in Steady State     :     0.00
  Average Iterations per Step :     4.47
  Percent Not Converging      :    26.32
  
  
  ***************************
  Subcatchment Runoff Summary
  ***************************
  
  ------------------------------------------------------------------------------------------------------------------------------
                            Total      Total      Total      Total     Imperv       Perv      Total       Total     Peak  Runoff
                           Precip      Runon       Evap      Infil     Runoff     Runoff     Runoff      Runoff   Runoff   Coeff
  Subcatchment                 mm         mm         mm         mm         mm         mm         mm    10^6 ltr      LPS
  ------------------------------------------------------------------------------------------------------------------------------
  sub0                      99.00       0.00       0.00       1.04      90.84       5.89      96.73        0.08    55.97   0.977
  sub1                      99.00       0.00       0.00       1.61      77.87       8.16      86.02        0.57   369.55   0.869
  sub10                     99.00       0.00       0.00       1.01      72.97       5.42      78.39        0.86   569.27   0.792
  sub11                     99.00       0.00       0.00       0.92      67.81       5.06      72.86        0.85   574.68   0.736
  sub12                     99.00       0.00       0.00       1.62      68.93       8.82      77.76        0.68   482.36   0.785
  sub14                     99.00       0.00       0.00       1.01      64.22       5.44      69.65        0.66   446.70   0.704
  sub15                     99.00       0.00       0.00       4.69      57.74      20.40      78.14        1.34   860.47   0.789
  sub16                     99.00       0.00       0.00       4.95      56.31      23.17      79.48        0.83   559.89   0.803
  sub17                     99.00       0.00       0.00       5.31      62.15      24.34      86.49        0.74   492.74   0.874
  sub2                      99.00       0.00       0.00       7.49      56.93      26.43      83.35        0.78   439.94   0.842
  sub22                     99.00       0.00       0.00       8.37      53.89      32.86      86.75        5.48  3352.20   0.876
  sub23                     99.00       0.00       0.00       6.26      55.50      26.79      82.28        3.92  2520.03   0.831
  sub3                      99.00       0.00       0.00       8.06      56.39      25.56      81.95        1.84   967.86   0.828
  sub4                      99.00       0.00       0.00       1.78      76.75       7.86      84.61        1.76   980.09   0.855
  sub5                      99.00       0.00       0.00       0.90      75.33       4.85      80.17        0.91   591.05   0.810
  sub60                     81.29       0.00       0.00       1.41      54.30       6.13      60.42        0.79   516.82   0.743
  sub61                     81.29       0.00       0.00       2.16      54.25       9.15      63.40        1.16   744.90   0.780
  sub62                     81.29       0.00       0.00       0.96      57.84       4.16      62.00        1.70  1017.93   0.763
  sub63                     81.29       0.00       0.00       3.91      46.46      15.39      61.85        1.40   810.56   0.761
  sub64                     81.29       0.00       0.00       1.88      52.91       7.62      60.53        1.45   809.80   0.745
  sub65                     81.29       0.00       0.00       1.73      57.11       6.96      64.07        1.76   943.68   0.788
  sub66                     81.29       0.00       0.00       4.50      44.94      14.20      59.14        2.76  1183.33   0.728
  sub67                     81.29       0.00       0.00       0.95      59.29       4.30      63.58        1.18   811.29   0.782
  sub68                     81.29       0.00       0.00       1.65      52.36       7.02      59.38        1.63  1010.59   0.731
  sub69                     81.29       0.00       0.00       1.50      54.69       8.16      62.85        2.33  1236.13   0.773
  sub7                      99.00       0.00       0.00       1.07      68.83       5.84      74.67        0.25   172.92   0.754
  sub70                     81.29       0.00       0.00       4.94      43.82      17.69      61.51        1.78   687.01   0.757
  sub71                     81.29       0.00       0.00       0.88      52.54       3.77      56.31        1.47   826.58   0.693
  sub72                     81.29       0.00       0.00       0.84      56.76       3.51      60.28        0.83   418.27   0.741
  sub8                      99.00       0.00       0.00       1.05      66.89       5.66      72.55        0.46   313.09   0.733
  sub9                      99.00       0.00       0.00       1.01      64.85       5.49      70.34        0.34   228.30   0.710
  

  ***********************
  LID Performance Summary
  ***********************

  --------------------------------------------------------------------------------------------------------------------
                                         Total      Evap     Infil   Surface    Drain    Initial     Final  Continuity
                                        Inflow      Loss      Loss   Outflow   Outflow   Storage   Storage       Error
  Subcatchment      LID Control             mm        mm        mm        mm        mm        mm        mm           %
  --------------------------------------------------------------------------------------------------------------------
  sub1              GreenRoof            99.00      0.00      0.00      0.00      0.00      7.05    106.13       -0.08
  sub10             GreenRoof            99.00      0.00      0.00      0.00      0.00      7.05    106.13       -0.08
  sub11             GreenRoof            99.00      0.00      0.00      0.00      0.00      7.05    106.13       -0.08
  sub12             GreenRoof            99.00      0.00      0.00      0.00      0.00      7.05    106.13       -0.08
  sub14             GreenRoof            99.00      0.00      0.00      0.00      0.00      7.05    106.13       -0.08
  sub15             GreenRoof            99.00      0.00      0.00      0.00      0.00      7.05    106.13       -0.08
  sub16             GreenRoof            99.00      0.00      0.00      0.00      0.00      7.05    106.13       -0.08
  sub17             GreenRoof            99.00      0.00      0.00      0.00      0.00      7.05    106.13       -0.08
  sub2              GreenRoof            99.00      0.00      0.00      0.00      0.00      7.05    106.13       -0.08
  sub22             GreenRoof            99.00      0.00      0.00      0.00      0.00      7.05    106.13       -0.08
  sub23             GreenRoof            99.00      0.00      0.00      0.00      0.00      7.05    106.13       -0.08
  sub3              GreenRoof            99.00      0.00      0.00      0.00      0.00      7.05    106.13       -0.08
  sub4              GreenRoof            99.00      0.00      0.00      0.00      0.00      7.05    106.13       -0.08
  sub5              GreenRoof            99.00      0.00      0.00      0.00      0.00      7.05    106.13       -0.08
  sub60             GreenRoof            81.29      0.00      0.00      0.00      0.00      7.05     88.38       -0.05
  sub61             GreenRoof            81.29      0.00      0.00      0.00      0.00      7.05     88.38       -0.05
  sub62             GreenRoof            81.29      0.00      0.00      0.00      0.00      7.05     88.38       -0.05
  sub63             GreenRoof            81.29      0.00      0.00      0.00      0.00      7.05     88.38       -0.05
  sub64             GreenRoof            81.29      0.00      0.00      0.00      0.00      7.05     88.38       -0.05
  sub65             GreenRoof            81.29      0.00      0.00      0.00      0.00      7.05     88.38       -0.05
  sub66             GreenRoof            81.29      0.00      0.00      0.00      0.00      7.05     88.38       -0.05
  sub67             GreenRoof            81.29      0.00      0.00      0.00      0.00      7.05     88.38       -0.05
  sub68             GreenRoof            81.29      0.00      0.00      0.00      0.00      7.05     88.38       -0.05
  sub69             GreenRoof            81.29      0.00      0.00      0.00      0.00      7.05     88.38       -0.05
  sub7              GreenRoof            99.00      0.00      0.00      0.00      0.00      7.05    106.13       -0.08
  sub70             GreenRoof            81.29      0.00      0.00      0.00      0.00      7.05     88.38       -0.05
  sub71             GreenRoof            81.29      0.00      0.00      0.00      0.00      7.05     88.38       -0.05
  sub72             GreenRoof            81.29      0.00      0.00      0.00      0.00      7.05     88.38       -0.05
  sub8              GreenRoof            99.00      0.00      0.00      0.00      0.00      7.05    106.13       -0.08
  sub9              GreenRoof            99.00      0.00      0.00      0.00      0.00      7.05    106.13       -0.08
  
  ******************
  Node Depth Summary
  ******************
  
  ---------------------------------------------------------------------------------
                                 Average  Maximum  Maximum  Time of Max    Reported
                                   Depth    Depth      HGL   Occurrence   Max Depth
  Node                 Type       Meters   Meters   Meters  days hr:min      Meters
  ---------------------------------------------------------------------------------
  HS02004478           JUNCTION     0.28     1.59    10.82     0  02:34        1.59
  HS02004479           JUNCTION     0.36     1.69    10.89     0  02:16        1.66
  HS02004480           JUNCTION     0.33     1.65    10.89     0  02:16        1.63
  HS02004770           JUNCTION     0.32     1.42    11.25     0  02:13        1.42
  HS02004777           JUNCTION     0.34     1.48    11.28     0  02:13        1.48
  HS02004785           JUNCTION     0.24     1.45    11.35     0  02:13        1.41
  HS02004788           JUNCTION     0.20     1.42    11.32     0  02:13        1.42
  HS02004792           JUNCTION     0.27     1.60    11.12     0  02:16        1.60
  HS02004799           JUNCTION     0.39     1.76    10.97     0  02:16        1.76
  HS02004802           JUNCTION     0.38     1.80    10.93     0  02:34        1.80
  HS02004807           JUNCTION     0.35     1.92    11.09     0  02:30        1.92
  HS02004817           JUNCTION     0.65     2.44    11.29     0  02:16        2.41
  HS02004824           JUNCTION     0.22     2.01    11.41     0  02:16        2.01
  HS02004830           JUNCTION     0.22     2.03    11.50     0  02:16        2.03
  HS02004837           JUNCTION     0.19     2.04    11.62     0  02:16        1.98
  HS02004842           JUNCTION     0.47     2.22    11.49     0  02:16        2.22
  HS02004848           JUNCTION     0.17     2.07    11.67     0  02:16        2.02
  HS02004852           JUNCTION     0.17     2.12    11.63     0  02:16        2.06
  HS02004856           JUNCTION     0.23     2.07    11.50     0  02:16        2.07
  HS02004862           JUNCTION     0.19     2.00    11.38     0  02:16        2.00
  HS02004870           JUNCTION     0.18     2.05    11.34     0  02:33        2.05
  HS02004876           JUNCTION     0.23     2.18    11.21     0  02:33        2.18
  HS02004881           JUNCTION     0.17     1.91    10.94     0  02:36        1.91
  HS02004901           JUNCTION     0.33     1.42    11.24     0  02:13        1.42
  WS02001211           JUNCTION     0.63     0.83     5.67     0  02:39        0.83
  WS02001212           JUNCTION     0.38     0.59     5.66     0  02:38        0.59
  WS02001213           JUNCTION     0.59     0.89     5.65     0  02:38        0.89
  WS02003059           JUNCTION     0.66     0.96     5.65     0  02:37        0.96
  WS02003060           JUNCTION     0.39     0.71     5.64     0  02:37        0.71
  WS02003066           JUNCTION     0.23     0.47     6.02     0  02:36        0.47
  WS02003067           JUNCTION     0.54     0.91     6.23     0  02:36        0.90
  WS02003069           JUNCTION     0.44     0.80     5.39     0  02:37        0.80
  WS02003072           JUNCTION     0.49     0.83     5.20     0  02:38        0.83
  WS02003073           JUNCTION     0.30     0.53     4.59     0  02:39        0.53
  WS02004138           JUNCTION     0.13     0.14     7.39     0  00:29        0.14
  WS02004139           JUNCTION     0.56     0.76     5.67     0  02:39        0.76
  WS02004401           JUNCTION     0.80     2.08     8.08     0  02:36        2.07
  WS02004402           JUNCTION     0.81     2.00     7.96     0  02:36        2.00
  WS02004403           JUNCTION     0.81     1.92     7.85     0  02:36        1.92
  WS02004404           JUNCTION     0.87     1.91     7.76     0  02:36        1.91
  WS02004405           JUNCTION     0.85     1.86     7.71     0  02:36        1.85
  WS02004406           JUNCTION     0.84     1.74     7.57     0  02:36        1.72
  WS02004407           JUNCTION     0.29     1.07     7.38     0  02:36        1.05
  WS02004409           JUNCTION     0.56     1.48     7.25     0  02:36        1.46
  WS02004410           JUNCTION     0.56     1.37     7.09     0  02:36        1.36
  WS02004411           JUNCTION     0.56     1.27     6.95     0  02:36        1.26
  WS02004412           JUNCTION     0.56     1.15     6.79     0  02:36        1.14
  WS02004413           JUNCTION     0.68     1.17     6.64     0  02:36        1.16
  WS02006109           JUNCTION     1.05     2.64     9.26     0  02:16        2.64
  WS02006110           JUNCTION     0.97     2.47     9.05     0  02:36        2.46
  WS02006111           JUNCTION     0.50     1.95     8.66     0  02:36        1.95
  WS02006112           JUNCTION     1.03     2.64     8.52     0  02:36        2.64
  WS02006113           JUNCTION     0.56     1.97     8.86     0  02:36        1.97
  WS02006115           JUNCTION     0.74     2.20     8.34     0  02:36        2.20
  WS02006116           JUNCTION     0.80     2.18     8.22     0  02:36        2.17
  WS02006228           JUNCTION     1.13     3.03     9.68     0  02:33        3.03
  WS02006229           JUNCTION     1.15     3.22     9.92     0  02:35        3.22
  WS02006230           JUNCTION     1.06     2.65     9.39     0  01:27        2.65
  WS02006231           JUNCTION     0.78     2.24     9.36     0  01:26        2.19
  WS02006232           JUNCTION     0.86     2.18     9.22     0  01:26        2.18
  WS02006234           JUNCTION     0.74     1.96     9.12     0  02:01        1.96
  WS02006235           JUNCTION     0.75     2.00     9.16     0  02:01        2.00
  WS02006238           JUNCTION     0.77     2.11     9.26     0  02:01        2.03
  WS02006239           JUNCTION     0.70     2.03     9.24     0  02:01        1.88
  WS02006240           JUNCTION     0.65     2.10     9.39     0  03:20        1.69
  WS02006242           JUNCTION     0.68     1.55     8.82     0  01:25        1.55
  WS02006243           JUNCTION     0.57     1.48     8.90     0  03:09        1.37
  WS02006245           JUNCTION     0.55     1.48     8.97     0  03:09        1.27
  WS02006247           JUNCTION     0.55     1.40     8.90     0  03:09        1.23
  WS02006248           JUNCTION     0.49     1.10     8.69     0  01:25        1.10
  WS02006249           JUNCTION     0.51     1.09     8.69     0  01:25        1.09
  WS02006251           JUNCTION     0.65     2.21     9.88     0  03:09        2.17
  WS02006252           JUNCTION     0.44     1.50     9.74     0  00:00        1.50
  WS02006253           JUNCTION     0.74     3.52    11.16     0  03:04        3.18
  WS02006256           JUNCTION     1.06     2.35     9.28     0  00:00        2.35
  WS02006280           JUNCTION     0.37     1.75    10.02     0  02:42        1.74
  WS02006284           JUNCTION     0.61     1.95    10.35     0  02:33        1.94
  WS02006287           JUNCTION     0.35     1.74    10.69     0  02:41        1.73
  WSF200               JUNCTION     0.23     0.54     5.78     0  02:36        0.54
  YS02001580           JUNCTION     0.13     1.05     9.59     0  01:24        0.79
  YS02001583           JUNCTION     0.16     1.14     9.64     0  01:24        0.83
  YS02001586           JUNCTION     0.25     1.13     9.30     0  01:24        1.13
  YS02001590           JUNCTION     0.35     1.40     9.26     0  01:23        1.37
  YS02001593           JUNCTION     0.29     1.46     9.32     0  01:23        1.30
  YS02001596           JUNCTION     0.38     1.75     9.17     0  01:24        1.66
  YS02001600           JUNCTION     0.46     1.87     9.00     0  01:23        1.86
  YS02001601           JUNCTION     0.64     2.06     8.90     0  01:23        2.06
  YS02001602           JUNCTION     0.55     1.87     8.77     0  01:25        1.87
  YS02001605           JUNCTION     0.51     1.78     8.68     0  01:25        1.77
  YS02001607           JUNCTION     0.49     1.68     8.53     0  01:25        1.64
  YS02001610           JUNCTION     0.53     1.68     8.48     0  01:25        1.68
  YS02001613           JUNCTION     0.49     1.70     8.54     0  01:25        1.67
  YS02001616           JUNCTION     0.42     1.61     8.52     0  01:25        1.61
  YS02001619           JUNCTION     0.40     1.61     8.54     0  01:25        1.61
  YS02001622           JUNCTION     0.39     1.62     8.52     0  01:25        1.62
  YS02001625           JUNCTION     0.64     1.78     8.38     0  01:25        1.78
  YS02001629           JUNCTION     0.52     1.85     8.40     0  01:24        1.85
  YS02001633           JUNCTION     0.59     2.08     8.53     0  01:25        2.08
  YS02001641           JUNCTION     0.56     1.99     8.43     0  01:26        1.99
  YS02001644           JUNCTION     0.55     1.92     8.35     0  01:25        1.92
  YS02001647           JUNCTION     0.33     1.84     8.45     0  01:26        1.71
  YS02001649           JUNCTION     0.37     2.05     8.44     0  01:26        1.91
  YS02001652           JUNCTION     0.26     2.16     8.76     0  01:26        1.76
  YS02001655           JUNCTION     0.20     2.20     9.05     0  01:26        1.56
  YS02001658           JUNCTION     0.14     2.30     9.44     0  01:26        1.33
  YS02001661           JUNCTION     0.16     2.46     9.86     0  01:27        1.13
  YS02001664           JUNCTION     0.07     0.83     8.76     0  01:27        0.61
  YS02001745           JUNCTION     0.07     2.35     9.87     0  01:27        1.58
  YS02001748           JUNCTION     0.12     2.27     9.35     0  01:26        1.10
  YS02001751           JUNCTION     0.15     2.20     9.08     0  01:26        1.28
  YS02001754           JUNCTION     0.21     2.20     8.81     0  01:26        1.55
  YS02001757           JUNCTION     0.37     2.21     8.47     0  01:27        1.90
  YS02001759           JUNCTION     0.31     2.21     8.57     0  01:26        1.89
  YS02001762           JUNCTION     0.31     2.15     8.55     0  01:26        1.89
  YS02001765           JUNCTION     0.29     2.10     8.55     0  01:26        1.85
  YS02001767           JUNCTION     0.29     2.03     8.52     0  01:26        1.84
  YS02001770           JUNCTION     0.30     1.95     8.44     0  01:26        1.93
  YS02001774           JUNCTION     0.36     2.04     8.46     0  01:26        1.97
  YS02001779           JUNCTION     0.20     1.68     8.37     0  01:26        1.68
  YS02001783           JUNCTION     0.28     1.33     7.47     0  01:25        1.22
  YS02001784           JUNCTION     0.29     1.30     7.37     0  01:25        1.13
  YS02001786           JUNCTION     0.24     1.38     7.41     0  01:25        0.88
  YS02001788           JUNCTION     0.18     0.64     6.62     0  01:25        0.64
  YS02001790           JUNCTION     0.21     0.72     6.37     0  01:30        0.72
  YS02001791           JUNCTION     0.13     0.44     5.91     0  01:34        0.43
  YS02001793           JUNCTION     0.07     0.29     5.12     0  01:45        0.26
  YS02001882           JUNCTION     0.36     1.83     8.55     0  01:25        1.74
  YS02001884           JUNCTION     0.44     1.93     8.55     0  01:25        1.74
  YS02001887           JUNCTION     0.52     1.87     8.41     0  01:25        1.82
  YS02001890           JUNCTION     0.54     1.81     8.32     0  01:25        1.81
  YS02001895           JUNCTION     0.33     1.75     8.50     0  01:25        1.57
  YS02001898           JUNCTION     0.33     1.77     8.51     0  01:25        1.56
  YS02001901           JUNCTION     0.44     1.81     8.42     0  01:25        1.68
  YS02001904           JUNCTION     0.42     1.77     8.40     0  01:25        1.63
  YS02001907           JUNCTION     0.73     1.96     8.25     0  01:25        1.96
  YS02001910           JUNCTION     0.54     2.10     8.61     0  01:25        1.95
  YS02001915           JUNCTION     0.36     2.00     8.72     0  01:25        1.87
  YS02001918           JUNCTION     0.21     1.81     8.88     0  01:25        1.59
  YS02001920           JUNCTION     0.28     2.14     9.15     0  01:25        1.56
  YS02001923           JUNCTION     0.16     2.03     9.29     0  01:25        1.34
  YS02001926           JUNCTION     0.19     1.90     9.35     0  01:26        1.17
  YS02001929           JUNCTION     0.11     1.78     9.47     0  01:26        0.95
  YS02006553           JUNCTION     0.73     1.99     8.27     0  01:27        1.99
  YS02006556           JUNCTION     0.70     1.97     8.28     0  01:27        1.97
  YS02006558           JUNCTION     0.74     2.06     8.32     0  01:27        2.06
  YS02006561           JUNCTION     0.18     0.97     7.63     0  01:25        0.89
  YS02163301           JUNCTION     0.54     1.97     8.48     0  01:25        1.95
  YS02163601           JUNCTION     0.62     2.08     8.48     0  01:26        2.08
  YS02164001           JUNCTION     0.55     2.02     8.48     0  01:26        2.02
  YSB1154              JUNCTION     0.50     2.09    11.14     0  02:33        2.09
  YSB1171              JUNCTION     0.63     1.95    10.85     0  02:16        1.95
  YSB1174              JUNCTION     0.45     1.88    10.99     0  02:33        1.88
  YSB6556              JUNCTION     0.39     1.80    10.97     0  02:33        1.80
  CC-1                 OUTFALL      0.00     0.00     0.00     0  00:00        0.00
  CC-2                 OUTFALL      0.00     0.00     0.00     0  00:00        0.00
  JK-1                 OUTFALL      0.00     0.00     0.00     0  00:00        0.00
  JK-2                 OUTFALL      0.00     0.00     0.00     0  00:00        0.00
  WSC                  OUTFALL      0.30     0.53     1.20     0  02:39        0.53
  CC-storage           STORAGE      0.64     1.23     6.73     0  01:56        1.23
  JK-storage           STORAGE      1.35     4.23     5.03     0  01:47        4.02
  XR-storage           STORAGE      7.75     9.26     7.26     0  08:00        9.26
  
  
  *******************
  Node Inflow Summary
  *******************
  
  -------------------------------------------------------------------------------------------------
                                  Maximum  Maximum                  Lateral       Total        Flow
                                  Lateral    Total  Time of Max      Inflow      Inflow     Balance
                                   Inflow   Inflow   Occurrence      Volume      Volume       Error
  Node                 Type           LPS      LPS  days hr:min    10^6 ltr    10^6 ltr     Percent
  -------------------------------------------------------------------------------------------------
  HS02004478           JUNCTION      0.00  2304.49     0  02:34           0        10.6      -0.009
  HS02004479           JUNCTION      0.00   372.48     0  02:22           0        1.01       0.065
  HS02004480           JUNCTION      0.00  1999.03     0  02:16           0        7.87       0.021
  HS02004770           JUNCTION   2520.03  2520.03     0  02:37        3.92        4.18       0.069
  HS02004777           JUNCTION      0.03   682.72     0  02:14    0.000864        2.19       0.231
  HS02004785           JUNCTION      0.15   684.60     0  02:14     0.00432        2.19       0.016
  HS02004788           JUNCTION    862.14   926.38     0  02:36        1.39        3.58       0.008
  HS02004792           JUNCTION   3352.48  4264.38     0  02:37        5.49        9.07       0.004
  HS02004799           JUNCTION    446.70  1726.57     0  02:16       0.663        7.19       0.044
  HS02004802           JUNCTION      0.00  1233.33     0  02:41           0        2.92       0.135
  HS02004807           JUNCTION    574.68  1771.58     0  02:36       0.847        3.19       0.138
  HS02004817           JUNCTION      0.60  1197.12     0  02:40      0.0173        2.39       0.705
  HS02004824           JUNCTION    980.14  1573.78     0  02:37        1.77        2.75       0.022
  HS02004830           JUNCTION      0.15   599.15     0  02:36     0.00432        1.24       0.085
  HS02004837           JUNCTION    575.62   639.73     0  02:16        1.05        1.58       0.049
  HS02004842           JUNCTION      0.00   612.95     0  02:16           0       0.984       1.344
  HS02004848           JUNCTION    967.86   967.86     0  02:37        1.84        2.48       0.014
  HS02004852           JUNCTION      0.00   819.91     0  02:16           0        2.15       0.011
  HS02004856           JUNCTION    228.30   846.41     0  02:15       0.338        2.49       0.073
  HS02004862           JUNCTION    440.14  1203.71     0  02:37       0.783        3.27       0.008
  HS02004870           JUNCTION    313.09  1256.65     0  02:40       0.464        3.65       0.012
  HS02004876           JUNCTION    369.55  1522.34     0  02:39       0.572        4.22       0.018
  HS02004881           JUNCTION    172.92  1673.69     0  02:36       0.252        4.47      -0.011
  HS02004901           JUNCTION    559.89   825.68     0  02:37       0.832        1.34       0.124
  WS02001211           JUNCTION      7.35   209.58     0  03:10       0.212        5.44       0.611
  WS02001212           JUNCTION      0.00   221.21     0  03:10           0        5.41       0.291
  WS02001213           JUNCTION      0.00   229.69     0  03:10           0        5.39       0.332
  WS02003059           JUNCTION      0.00   238.67     0  03:09           0        5.38       0.595
  WS02003060           JUNCTION     16.53  1578.31     0  02:36       0.476        14.7       0.099
  WS02003066           JUNCTION      0.00  1380.45     0  02:36           0        8.93       0.016
  WS02003067           JUNCTION      0.00  1379.24     0  02:36           0        8.93       0.049
  WS02003069           JUNCTION      0.32  1574.64     0  02:37     0.00922        14.7       0.104
  WS02003072           JUNCTION      0.00  1572.82     0  02:38           0        14.7       0.142
  WS02003073           JUNCTION      1.82  1574.78     0  02:38      0.0524        14.8       0.146
  WS02004138           JUNCTION      0.00   380.00     0  00:00           0        5.25       0.053
  WS02004139           JUNCTION      0.32   191.26     0  00:29     0.00924        5.26       0.510
  WS02004401           JUNCTION      0.00  1374.63     0  02:37           0        9.04       0.118
  WS02004402           JUNCTION      0.00  1375.50     0  02:37           0        9.03       0.120
  WS02004403           JUNCTION      0.00  1375.27     0  02:37           0        9.01       0.117
  WS02004404           JUNCTION      0.16  1375.34     0  02:37     0.00467        9.01       0.091
  WS02004405           JUNCTION      0.04  1376.30     0  02:36      0.0011           9       0.146
  WS02004406           JUNCTION      0.00  1375.48     0  02:36           0        8.99       0.236
  WS02004407           JUNCTION      0.00  1376.22     0  02:37           0        8.97       0.016
  WS02004409           JUNCTION      0.00  1376.26     0  02:36           0        8.97       0.038
  WS02004410           JUNCTION      0.00  1376.75     0  02:36           0        8.96       0.054
  WS02004411           JUNCTION      0.00  1377.37     0  02:36           0        8.96       0.069
  WS02004412           JUNCTION      0.00  1377.32     0  02:36           0        8.95       0.089
  WS02004413           JUNCTION      0.00  1378.97     0  02:36           0        8.94       0.156
  WS02006109           JUNCTION      1.23  1288.92     0  02:31      0.0354        8.77       0.119
  WS02006110           JUNCTION      0.00  1122.18     0  02:50           0        8.33       0.097
  WS02006111           JUNCTION      0.00  1122.52     0  02:50           0        8.32       0.016
  WS02006112           JUNCTION    492.74  1375.30     0  02:36       0.742        9.06       0.202
  WS02006113           JUNCTION      0.00  1122.15     0  02:50           0        8.33       0.023
  WS02006115           JUNCTION      0.00  1375.66     0  02:37           0        9.05       0.079
  WS02006116           JUNCTION      0.00  1375.77     0  02:37           0        9.04       0.028
  WS02006228           JUNCTION      0.00  1288.82     0  02:34           0        8.74       0.062
  WS02006229           JUNCTION      0.00  2305.09     0  02:31           0        11.8       0.080
  WS02006230           JUNCTION     10.28  1025.99     0  02:30       0.296        4.44       0.182
  WS02006231           JUNCTION      0.00   453.26     0  02:53           0        2.86      -0.082
  WS02006232           JUNCTION      0.00   453.44     0  02:54           0        2.86       0.149
  WS02006234           JUNCTION      0.00   472.98     0  01:26           0        2.86      -0.150
  WS02006235           JUNCTION      0.00   479.29     0  01:26           0        2.83       0.138
  WS02006238           JUNCTION      0.00   485.50     0  01:26           0        2.68      -0.355
  WS02006239           JUNCTION      0.00   531.91     0  01:26           0        2.67      -0.162
  WS02006240           JUNCTION      0.00   577.96     0  01:25           0        2.67      -0.015
  WS02006242           JUNCTION      0.00   583.40     0  01:25           0        2.67      -0.003
  WS02006243           JUNCTION      0.00   600.88     0  01:25           0        2.18      -0.126
  WS02006245           JUNCTION      0.00   609.34     0  01:25           0        2.19       0.363
  WS02006247           JUNCTION      0.00   623.59     0  01:25           0        2.19      -0.068
  WS02006248           JUNCTION      0.00   656.49     0  01:25           0        2.52      -0.032
  WS02006249           JUNCTION      0.00  1384.92     0  02:36           0        6.56       0.082
  WS02006251           JUNCTION      0.08  1731.37     0  02:36     0.00222        6.86       0.033
  WS02006252           JUNCTION      0.00   849.22     0  02:36           0        3.27      -1.796
  WS02006253           JUNCTION     55.97  1729.80     0  02:36      0.0783        4.61       0.002
  WS02006256           JUNCTION      0.00   450.00     0  00:11           0        1.27       0.677
  WS02006280           JUNCTION      0.00  2303.05     0  02:31           0        10.6       0.002
  WS02006284           JUNCTION      0.10  2303.02     0  02:36     0.00275        10.6       0.000
  WS02006287           JUNCTION      0.00  2304.62     0  02:31           0        10.5       0.005
  WSF200               JUNCTION      0.00  1381.68     0  02:36           0        8.92       0.009
  YS02001580           JUNCTION      0.00   321.07     0  01:24           0     0.00531      -3.564
  YS02001583           JUNCTION      0.00   314.80     0  01:24           0      0.0157     -11.940
  YS02001586           JUNCTION    687.01   687.01     0  01:31        1.78        1.79       0.071
  YS02001590           JUNCTION      0.00   317.93     0  01:47           0        1.39      -0.057
  YS02001593           JUNCTION      0.00   317.95     0  01:36           0        1.39       0.023
  YS02001596           JUNCTION      0.00   318.04     0  01:36           0        1.39       0.003
  YS02001600           JUNCTION      0.00   318.06     0  01:36           0        1.39       0.006
  YS02001601           JUNCTION   1236.13  1553.62     0  01:29        2.33        3.72       0.020
  YS02001602           JUNCTION      0.00   602.95     0  01:24           0        2.35       0.016
  YS02001605           JUNCTION      0.00   602.79     0  01:24           0        2.25       0.019
  YS02001607           JUNCTION      0.00   602.67     0  01:24           0        2.25       0.067
  YS02001610           JUNCTION      0.00   633.70     0  01:30           0        2.44       0.083
  YS02001613           JUNCTION      0.00   534.69     0  01:24           0        1.97       0.039
  YS02001616           JUNCTION      0.00   676.07     0  01:25           0        1.97      -0.018
  YS02001619           JUNCTION   1183.33  1183.33     0  01:31        2.76        4.52      -0.010
  YS02001622           JUNCTION      0.00   983.58     0  01:24           0        4.32      -0.017
  YS02001625           JUNCTION      0.00  1251.82     0  01:31           0        4.44       0.208
  YS02001629           JUNCTION      0.00   893.56     0  01:59           0        3.71      -0.030
  YS02001633           JUNCTION    943.88  1273.94     0  01:25        1.77        5.31       0.065
  YS02001641           JUNCTION      0.00  1262.94     0  01:25           0        5.15       0.051
  YS02001644           JUNCTION    809.84  1926.74     0  01:25        1.46         6.6       0.040
  YS02001647           JUNCTION      0.00  1925.20     0  01:25           0         6.4       0.007
  YS02001649           JUNCTION      0.00  2198.87     0  01:26           0        7.81       0.000
  YS02001652           JUNCTION      0.00   995.38     0  01:28           0        1.41      -0.249
  YS02001655           JUNCTION      0.15   995.28     0  01:28     0.00443        1.41       0.141
  YS02001658           JUNCTION      0.00   994.97     0  01:28           0         1.4      -0.034
  YS02001661           JUNCTION      0.00   985.90     0  01:28           0         1.4       0.011
  YS02001664           JUNCTION    810.56   810.56     0  01:28         1.4         1.4      -0.009
  YS02001745           JUNCTION    516.82   713.89     0  01:26       0.794       0.795       0.255
  YS02001748           JUNCTION      0.04   712.57     0  01:27      0.0013       0.797      -0.433
  YS02001751           JUNCTION      0.01   801.88     0  01:26    0.000317       0.806       0.228
  YS02001754           JUNCTION      0.26   667.74     0  01:26     0.00749       0.818      -0.411
  YS02001757           JUNCTION      0.00  3559.43     0  01:27           0        11.4       0.060
  YS02001759           JUNCTION    744.94  1464.69     0  01:27        1.16        2.78      -0.004
  YS02001762           JUNCTION      0.00   825.53     0  01:32           0        1.62       0.004
  YS02001765           JUNCTION      0.00   823.54     0  01:32           0        1.62      -0.034
  YS02001767           JUNCTION      0.54   824.02     0  01:32      0.0154        1.62      -0.042
  YS02001770           JUNCTION   1018.09  1018.09     0  01:28         1.7        1.74      -0.004
  YS02001774           JUNCTION      0.00   809.94     0  01:26           0       0.158       0.310
  YS02001779           JUNCTION      0.01   821.69     0  01:26    0.000144       0.118      -0.586
  YS02001783           JUNCTION      0.00  1162.64     0  01:26           0        4.05       0.006
  YS02001784           JUNCTION      1.06  1163.68     0  01:26      0.0305        4.08       0.011
  YS02001786           JUNCTION      0.06  1163.68     0  01:26     0.00162        4.08       0.017
  YS02001788           JUNCTION      0.07  1164.23     0  01:26     0.00204        4.08       0.007
  YS02001790           JUNCTION      0.15  1208.82     0  01:26     0.00446        4.09       0.030
  YS02001791           JUNCTION      0.00  1288.34     0  01:30           0        4.09      -0.031
  YS02001793           JUNCTION      0.00  1244.55     0  01:29           0        4.09       0.005
  YS02001882           JUNCTION      0.00   180.98     0  01:24           0      0.0122       2.675
  YS02001884           JUNCTION      0.00   272.19     0  01:24           0      0.0478       5.554
  YS02001887           JUNCTION    811.74   813.05     0  01:26         1.2        1.23       0.361
  YS02001890           JUNCTION      0.00   812.83     0  01:26           0        1.19       0.420
  YS02001895           JUNCTION      0.00   738.78     0  01:25           0         1.1       0.159
  YS02001898           JUNCTION      0.00   666.65     0  01:25           0         1.1      -0.073
  YS02001901           JUNCTION      0.00   575.25     0  01:25           0         1.1       0.289
  YS02001904           JUNCTION      0.00   574.66     0  01:25           0        1.13       0.231
  YS02001907           JUNCTION      0.00  1820.23     0  01:27           0         3.5       0.486
  YS02001910           JUNCTION      0.00  1288.93     0  01:27           0        2.39       0.304
  YS02001915           JUNCTION    826.60  1288.95     0  01:27        1.47        2.45       0.048
  YS02001918           JUNCTION      0.00  1037.10     0  01:25           0        1.01       0.016
  YS02001920           JUNCTION      2.87   990.22     0  01:25      0.0827       0.973       0.014
  YS02001923           JUNCTION      0.04  1440.23     0  01:25     0.00109       0.872      -0.434
  YS02001926           JUNCTION      0.05  1560.34     0  01:26      0.0015        0.85       0.037
  YS02001929           JUNCTION    418.27   929.74     0  01:26       0.829       0.835      -0.077
  YS02006553           JUNCTION      0.00   787.15     0  01:47           0        2.45       0.482
  YS02006556           JUNCTION      0.00   787.33     0  01:48           0        2.47       0.322
  YS02006558           JUNCTION   1011.47  1227.99     0  01:25        1.66         4.1       0.079
  YS02006561           JUNCTION      0.00  1231.41     0  01:25           0        4.05       0.001
  YS02163301           JUNCTION      0.00   900.55     0  02:00           0        3.71       0.040
  YS02163601           JUNCTION      0.11  1270.94     0  01:25     0.00317        5.14       0.096
  YS02164001           JUNCTION      0.00  1268.67     0  01:25           0        5.14       0.044
  YSB1154              JUNCTION    591.05   591.05     0  02:37       0.908       0.909       0.158
  YSB1171              JUNCTION      0.00  1303.77     0  02:36           0        1.78       0.355
  YSB1174              JUNCTION    482.36   482.36     0  02:36        0.68        0.68       0.186
  YSB6556              JUNCTION      0.00   591.20     0  02:37           0        0.91       0.129
  CC-1                 OUTFALL       0.00  1024.50     0  00:01           0        2.88       0.000
  CC-2                 OUTFALL       0.00  1024.50     0  00:01           0        6.34       0.000
  JK-1                 OUTFALL       0.00  1500.00     0  02:31           0       0.638       0.000
  JK-2                 OUTFALL       0.00  1500.00     0  01:24           0        2.31       0.000
  WSC                  OUTFALL       0.00  1575.09     0  02:39           0        14.7       0.000
  CC-storage           STORAGE       0.00  3559.28     0  01:27           0        13.6      -0.209
  JK-storage           STORAGE       0.00  1244.55     0  01:29           0        4.24      -0.393
  XR-storage           STORAGE     200.00   200.00     0  00:00        5.76        6.36       0.001
  
  
  **********************
  Node Surcharge Summary
  **********************
  
  Surcharging occurs when water rises above the top of the highest conduit.
  ---------------------------------------------------------------------
                                               Max. Height   Min. Depth
                                   Hours       Above Crown    Below Rim
  Node                 Type      Surcharged         Meters       Meters
  ---------------------------------------------------------------------
  HS02004478           JUNCTION        0.67          0.669        0.271
  HS02004479           JUNCTION        0.82          0.885        0.165
  HS02004480           JUNCTION        0.87          0.941        0.159
  HS02004770           JUNCTION        0.76          0.720        0.000
  HS02004777           JUNCTION        0.76          0.780        0.000
  HS02004785           JUNCTION        0.71          0.749        0.041
  HS02004788           JUNCTION        0.69          0.720        0.000
  HS02004792           JUNCTION        0.84          0.900        0.000
  HS02004799           JUNCTION        1.01          1.060        0.000
  HS02004802           JUNCTION        0.89          1.090        0.120
  HS02004807           JUNCTION        0.85          1.220        0.000
  HS02004817           JUNCTION        1.50          1.740        0.000
  HS02004824           JUNCTION        0.69          1.310        0.000
  HS02004830           JUNCTION        0.66          1.330        0.000
  HS02004837           JUNCTION        0.60          1.340        0.000
  HS02004842           JUNCTION        0.76          1.520        0.000
  HS02004848           JUNCTION        0.58          1.370        0.000
  HS02004852           JUNCTION        0.61          1.420        0.000
  HS02004856           JUNCTION        0.58          1.300        0.000
  HS02004862           JUNCTION        0.63          1.300        0.000
  HS02004870           JUNCTION        0.62          1.354        0.046
  HS02004876           JUNCTION        0.71          1.476        0.084
  HS02004881           JUNCTION        0.66          1.212        0.238
  HS02004901           JUNCTION        0.76          0.720        0.000
  WS02004401           JUNCTION        1.82          1.081        0.579
  WS02004402           JUNCTION        1.84          1.004        0.736
  WS02004403           JUNCTION        1.84          0.920        1.110
  WS02004404           JUNCTION        1.92          0.914        1.866
  WS02004405           JUNCTION        1.91          0.864        1.936
  WS02004406           JUNCTION        1.89          0.736        1.714
  WS02004407           JUNCTION        0.07          0.066        2.274
  WS02004409           JUNCTION        1.39          0.480        1.880
  WS02004410           JUNCTION        1.27          0.373        2.167
  WS02004411           JUNCTION        1.17          0.270        2.260
  WS02004412           JUNCTION        1.05          0.153        2.157
  WS02004413           JUNCTION        1.63          0.174        2.026
  WS02006109           JUNCTION        2.12          1.820        0.000
  WS02006110           JUNCTION        1.98          1.555        0.295
  WS02006111           JUNCTION        1.54          1.143        0.727
  WS02006112           JUNCTION        2.04          1.638        0.042
  WS02006113           JUNCTION        1.58          1.166        0.764
  WS02006115           JUNCTION        1.76          1.194        1.056
  WS02006116           JUNCTION        1.78          1.121        1.169
  WS02006228           JUNCTION        2.11          2.200        0.000
  WS02006229           JUNCTION        1.21          1.043        0.027
  WS02006230           JUNCTION        1.90          1.570        0.000
  WS02006231           JUNCTION        1.91          1.530        0.000
  WS02006232           JUNCTION        2.00          1.480        0.000
  WS02006234           JUNCTION        1.89          1.240        0.000
  WS02006235           JUNCTION        1.88          1.290        0.000
  WS02006238           JUNCTION        1.92          1.392        0.038
  WS02006239           JUNCTION        1.87          1.290        0.000
  WS02006240           JUNCTION        1.86          1.390        0.000
  WS02006242           JUNCTION        1.91          0.820        0.000
  WS02006243           JUNCTION        1.86          0.770        0.000
  WS02006245           JUNCTION        1.85          0.771        0.079
  WS02006247           JUNCTION        1.86          0.687        0.073
  WS02006248           JUNCTION        1.84          0.380        0.000
  WS02006249           JUNCTION        1.85          0.390        0.000
  WS02006251           JUNCTION        1.62          1.180        0.000
  WS02006252           JUNCTION        2.00          1.100        0.000
  WS02006253           JUNCTION        1.63          2.480        0.000
  WS02006256           JUNCTION        6.58          2.050        0.000
  WS02006280           JUNCTION        1.02          0.697        0.083
  WS02006284           JUNCTION        0.92          0.666        0.134
  WS02006287           JUNCTION        0.77          0.737        0.153
  YS02001580           JUNCTION        0.67          0.450        0.000
  YS02001583           JUNCTION        0.68          0.500        0.000
  YS02001586           JUNCTION        0.78          0.510        0.000
  YS02001590           JUNCTION        0.85          0.750        0.000
  YS02001593           JUNCTION        0.85          0.840        0.000
  YS02001596           JUNCTION        0.95          1.017        0.053
  YS02001600           JUNCTION        1.12          1.190        0.000
  YS02001601           JUNCTION        1.61          1.440        0.000
  YS02001602           JUNCTION        1.43          1.270        0.000
  YS02001605           JUNCTION        1.36          1.180        0.000
  YS02001607           JUNCTION        0.77          0.680        0.000
  YS02001610           JUNCTION        0.80          0.680        0.000
  YS02001613           JUNCTION        0.76          0.700        0.000
  YS02001616           JUNCTION        0.71          0.610        0.000
  YS02001619           JUNCTION        0.70          0.610        0.000
  YS02001622           JUNCTION        0.69          0.620        0.000
  YS02001625           JUNCTION        0.90          0.780        0.000
  YS02001629           JUNCTION        0.61          0.470        0.000
  YS02001633           JUNCTION        0.90          1.060        0.000
  YS02001641           JUNCTION        0.78          0.994        0.106
  YS02001644           JUNCTION        0.73          0.920        0.000
  YS02001647           JUNCTION        0.53          0.838        0.062
  YS02001649           JUNCTION        0.61          1.050        0.000
  YS02001652           JUNCTION        0.44          1.130        0.000
  YS02001655           JUNCTION        0.25          1.200        0.000
  YS02001658           JUNCTION        0.14          1.300        0.000
  YS02001661           JUNCTION        0.02          1.390        0.000
  YS02001745           JUNCTION        0.01          1.350        0.000
  YS02001748           JUNCTION        0.03          1.190        0.000
  YS02001751           JUNCTION        0.16          1.200        0.000
  YS02001754           JUNCTION        0.25          1.150        0.000
  YS02001757           JUNCTION        0.62          1.210        0.000
  YS02001759           JUNCTION        0.55          1.210        0.000
  YS02001762           JUNCTION        0.53          1.150        0.000
  YS02001765           JUNCTION        0.49          1.100        0.000
  YS02001767           JUNCTION        0.46          1.030        0.000
  YS02001770           JUNCTION        0.44          0.920        0.000
  YS02001774           JUNCTION        0.51          1.036        0.014
  YS02001779           JUNCTION        0.27          0.680        0.000
  YS02001783           JUNCTION        0.54          0.530        1.070
  YS02001784           JUNCTION        0.52          0.504        0.986
  YS02001786           JUNCTION        0.42          0.578        0.852
  YS02001882           JUNCTION        0.49          0.830        0.000
  YS02001884           JUNCTION        0.50          0.870        0.000
  YS02001887           JUNCTION        0.54          0.823        0.127
  YS02001890           JUNCTION        0.55          0.760        0.000
  YS02001895           JUNCTION        0.48          0.750        0.000
  YS02001898           JUNCTION        0.47          0.740        0.000
  YS02001901           JUNCTION        0.52          0.813        0.057
  YS02001904           JUNCTION        0.51          0.767        0.083
  YS02001907           JUNCTION        0.72          0.950        0.000
  YS02001910           JUNCTION        0.57          1.099        0.001
  YS02001915           JUNCTION        0.49          1.000        0.000
  YS02001918           JUNCTION        0.41          0.810        0.000
  YS02001920           JUNCTION        0.42          1.140        0.000
  YS02001923           JUNCTION        0.03          0.820        0.000
  YS02001926           JUNCTION        0.08          0.900        0.000
  YS02001929           JUNCTION        0.01          0.780        0.000
  YS02006553           JUNCTION        0.74          0.988        0.202
  YS02006556           JUNCTION        0.65          0.932        0.418
  YS02006558           JUNCTION        0.64          0.957        0.443
  YS02006561           JUNCTION        0.37          0.172        0.978
  YS02163301           JUNCTION        0.88          0.968        0.062
  YS02163601           JUNCTION        0.93          1.080        0.000
  YS02164001           JUNCTION        0.80          1.017        0.083
  YSB1154              JUNCTION        1.16          1.386        0.014
  YSB1171              JUNCTION        1.16          1.100        0.000
  YSB1174              JUNCTION        1.06          1.181        0.069
  YSB6556              JUNCTION        0.97          1.100        0.000
  
  
  *********************
  Node Flooding Summary
  *********************
  
  Flooding refers to all water that overflows a node, whether it ponds or not.
  --------------------------------------------------------------------------
                                                             Total   Maximum
                                 Maximum   Time of Max       Flood    Ponded
                        Hours       Rate    Occurrence      Volume     Depth
  Node                 Flooded       LPS   days hr:min    10^6 ltr    Meters
  --------------------------------------------------------------------------
  HS02004770              0.56   2204.73      0  02:37       1.479     0.000
  HS02004777              0.01     15.98      0  02:13       0.000     0.000
  HS02004788              0.01     82.56      0  02:13       0.000     0.000
  HS02004792              0.55   3121.78      0  02:37       2.541     0.000
  HS02004799              0.27    283.75      0  02:37       0.136     0.000
  HS02004807              0.19    540.07      0  02:36       0.243     0.000
  HS02004817              0.01     10.24      0  02:16       0.000     0.000
  HS02004824              0.14    377.57      0  02:37       0.115     0.000
  HS02004830              0.01     11.79      0  02:16       0.000     0.000
  HS02004837              0.01    112.02      0  02:16       0.000     0.000
  HS02004842              0.14    417.77      0  02:37       0.110     0.000
  HS02004848              0.01     12.03      0  02:16       0.000     0.000
  HS02004852              0.01     36.02      0  02:16       0.000     0.000
  HS02004856              0.01     22.96      0  02:16       0.000     0.000
  HS02004862              0.12    385.82      0  02:37       0.084     0.000
  HS02004901              0.64    825.67      0  02:37       1.084     0.000
  WS02006109              0.57    407.57      0  02:36       0.431     0.000
  WS02006228              0.01      2.01      0  02:34       0.000     0.000
  WS02006230              0.93    573.01      0  02:30       1.316     0.000
  WS02006231              0.01    219.79      0  01:26       0.000     0.000
  WS02006232              0.18     59.54      0  01:26       0.000     0.000
  WS02006234              0.98    127.81      0  02:34       0.236     0.000
  WS02006235              0.01     49.32      0  02:01       0.000     0.000
  WS02006239              0.01     64.72      0  03:22       0.000     0.000
  WS02006240              0.01    122.51      0  03:20       0.000     0.000
  WS02006242              1.19    137.48      0  02:53       0.482     0.000
  WS02006243              0.01     52.74      0  03:17       0.000     0.000
  WS02006248              1.51    339.24      0  03:02       1.610     0.000
  WS02006249              1.73   1323.93      0  02:36       5.309     0.000
  WS02006251              0.01    164.99      0  03:09       0.000     0.000
  WS02006252              0.66    848.25      0  02:36       1.083     0.000
  WS02006253              0.01    247.62      0  03:04       0.000     0.000
  WS02006256              0.80    448.05      0  03:04       0.947     0.000
  YS02001580              0.01    296.65      0  01:24       0.002     0.000
  YS02001583              0.01    240.30      0  01:24       0.001     0.000
  YS02001586              0.53    369.46      0  01:31       0.385     0.000
  YS02001590              0.01    202.75      0  01:23       0.001     0.000
  YS02001593              0.01     67.27      0  01:23       0.000     0.000
  YS02001600              0.01     21.20      0  01:23       0.000     0.000
  YS02001601              0.69   1155.81      0  01:29       1.361     0.000
  YS02001602              0.52     62.03      0  01:29       0.108     0.000
  YS02001605              0.01      8.24      0  01:25       0.000     0.000
  YS02001607              0.01    474.51      0  01:25       0.005     0.000
  YS02001610              0.47    633.57      0  01:30       0.674     0.000
  YS02001613              0.01    301.69      0  01:25       0.001     0.000
  YS02001616              0.01    486.31      0  01:25       0.005     0.000
  YS02001619              0.01    296.22      0  01:25       0.001     0.000
  YS02001622              0.01    357.95      0  01:25       0.001     0.000
  YS02001625              0.41   1251.50      0  01:31       0.885     0.000
  YS02001629              0.09    335.92      0  01:24       0.048     0.000
  YS02001633              0.01      6.56      0  01:25       0.000     0.000
  YS02001644              0.13    804.33      0  01:27       0.181     0.000
  YS02001649              0.01    171.50      0  01:27       0.001     0.000
  YS02001652              0.01     40.38      0  01:26       0.000     0.000
  YS02001655              0.01    590.10      0  01:26       0.001     0.000
  YS02001658              0.01    438.41      0  01:26       0.001     0.000
  YS02001661              0.01    183.43      0  01:27       0.000     0.000
  YS02001745              0.01    205.30      0  01:27       0.000     0.000
  YS02001748              0.01    562.04      0  01:27       0.001     0.000
  YS02001751              0.01    264.64      0  01:26       0.000     0.000
  YS02001754              0.01    586.34      0  01:26       0.001     0.000
  YS02001757              0.01      3.66      0  01:27       0.000     0.000
  YS02001759              0.01     52.20      0  01:26       0.000     0.000
  YS02001762              0.01     93.99      0  01:26       0.000     0.000
  YS02001765              0.01    121.80      0  01:26       0.000     0.000
  YS02001767              0.01     14.55      0  01:26       0.000     0.000
  YS02001770              0.01    454.60      0  01:26       0.001     0.000
  YS02001779              0.11    783.22      0  01:26       0.102     0.000
  YS02001882              0.01     52.71      0  01:25       0.000     0.000
  YS02001884              0.01     89.61      0  01:25       0.000     0.000
  YS02001890              0.14    335.17      0  01:25       0.085     0.000
  YS02001898              0.01    538.04      0  01:25       0.003     0.000
  YS02001907              0.35   1671.79      0  01:27       1.021     0.000
  YS02001915              0.01    371.36      0  01:25       0.001     0.000
  YS02001918              0.01    249.74      0  01:26       0.004     0.000
  YS02001920              0.01    375.25      0  01:25       0.001     0.000
  YS02001923              0.01    966.62      0  01:25       0.005     0.000
  YS02001926              0.01    901.28      0  01:26       0.003     0.000
  YS02001929              0.01    868.01      0  01:26       0.004     0.000
  YS02163601              0.01     10.54      0  01:26       0.000     0.000
  YSB1171                 0.39   1302.20      0  02:36       0.949     0.000
  YSB6556                 0.01      0.69      0  02:33       0.000     0.000
  
  
  **********************
  Storage Volume Summary
  **********************
  
  --------------------------------------------------------------------------------------------------
                         Average     Avg  Evap Exfil       Maximum     Max    Time of Max    Maximum
                          Volume    Pcnt  Pcnt  Pcnt        Volume    Pcnt     Occurrence    Outflow
  Storage Unit           1000 m3    Full  Loss  Loss       1000 m3    Full    days hr:min        LPS
  --------------------------------------------------------------------------------------------------
  CC-storage               1.788      28     0     0         3.416      53       0  01:56    2549.00
  JK-storage               0.068      23     0     0         0.212      73       0  01:47    2300.00
  XR-storage               0.931      65     0     0         1.111      77       0  08:00     380.00
  
  
  ***********************
  Outfall Loading Summary
  ***********************
  
  -----------------------------------------------------------
                         Flow       Avg       Max       Total
                         Freq      Flow      Flow      Volume
  Outfall Node           Pcnt       LPS       LPS    10^6 ltr
  -----------------------------------------------------------
  CC-1                  22.23    903.43   1024.50       2.880
  CC-2                  38.61   1022.44   1024.50       6.344
  JK-1                   3.73   1015.01   1500.00       0.638
  JK-2                   8.72   1489.62   1500.00       2.306
  WSC                   99.95    657.34   1575.09      14.730
  -----------------------------------------------------------
  System                34.65   5087.86   1575.09      26.898
  
  
  ********************
  Link Flow Summary
  ********************
  
  -----------------------------------------------------------------------------
                                 Maximum  Time of Max   Maximum    Max/    Max/
                                  |Flow|   Occurrence   |Veloc|    Full    Full
  Link                 Type          LPS  days hr:min     m/sec    Flow   Depth
  -----------------------------------------------------------------------------
  1                    CONDUIT   1575.09     0  02:39      3.74    0.55    0.53
  HS02004478WS02006287 CONDUIT   2304.62     0  02:31      2.59    0.65    1.00
  HS02004479HS02004480 CONDUIT    371.59     0  02:23      0.53    0.36    1.00
  HS02004480HS02004478 CONDUIT   1995.92     0  02:16      2.85    8.41    1.00
  HS02004770HS02004777 CONDUIT    682.69     0  02:14      0.98    1.25    1.00
  HS02004777HS02004785 CONDUIT    684.45     0  02:14      1.01    0.84    1.00
  HS02004785HS02004788 CONDUIT    686.74     0  02:14      1.36    5.18    1.00
  HS02004788HS02004792 CONDUIT    927.24     0  02:36      1.44    0.61    1.00
  HS02004792HS02004799 CONDUIT   1614.45     0  02:16      2.31    0.99    1.00
  HS02004799HS02004480 CONDUIT   1726.18     0  02:16      2.47    2.18    1.00
  HS02004802HS02004478 CONDUIT   1233.88     0  02:34      1.76    1.09    1.00
  HS02004807HS02004802 CONDUIT   1233.33     0  02:41      1.76    2.35    1.00
  HS02004817HS02004807 CONDUIT   1197.11     0  02:35      1.71    0.71    1.00
  HS02004817HS02004824 CONDUIT   1196.52     0  02:40      1.71    0.54    1.00
  HS02004824HS02004830 CONDUIT    599.29     0  02:36      0.86    0.78    1.00
  HS02004830HS02004837 CONDUIT    599.00     0  02:36      0.86    0.60    1.00
  HS02004837HS02004842 CONDUIT    612.95     0  02:16      0.90    0.37    1.00
  HS02004842HS02004848 CONDUIT    612.78     0  02:16      0.97    0.36    1.00
  HS02004848HS02004852 CONDUIT    819.91     0  02:16      1.45    0.92    1.00
  HS02004852HS02004856 CONDUIT    790.45     0  02:15      1.33    0.90    1.00
  HS02004856HS02004862 CONDUIT    833.73     0  02:53      1.34    0.83    1.00
  HS02004862HS02004870 CONDUIT   1082.06     0  02:41      1.65    1.17    1.00
  HS02004870HS02004876 CONDUIT   1256.15     0  02:40      1.79    0.83    1.00
  HS02004876HS02004881 CONDUIT   1522.72     0  02:39      2.49   16.20    1.00
  HS02004881HS02006253 CONDUIT   1673.83     0  02:36      2.39    0.33    1.00
  HS02004901HS02004770 CONDUIT    265.79     0  02:48      0.38    1.00    1.00
  WS02001211WS02001212 CONDUIT    221.21     0  03:10      0.54    0.17    0.71
  WS02001212WS02001213 CONDUIT    229.69     0  03:10      1.04    0.35    0.58
  WS02001213WS02003059 CONDUIT    238.67     0  03:09      0.47    0.39    0.91
  WS02003059WS02003060 CONDUIT    249.62     0  03:09      0.67    0.16    0.83
  WS02003060WS02003069 CONDUIT   1574.32     0  02:37      2.11    0.62    0.63
  WS02003066WSF200     CONDUIT   1381.68     0  02:36      3.28    0.23    0.40
  WS02003067WS02003066 CONDUIT   1380.45     0  02:36      2.07    0.44    0.57
  WS02003069WS02003072 CONDUIT   1572.82     0  02:38      1.92    0.76    0.68
  WS02003072WS02003073 CONDUIT   1572.96     0  02:38      2.09    3.40    0.63
  WS02004138WS02004139 CONDUIT    190.94     0  00:29      2.16    0.04    0.43
  WS02004139WS02001211 CONDUIT    202.24     0  03:10      0.54    0.26    0.62
  WS02004401WS02004402 CONDUIT   1375.50     0  02:37      1.75    1.65    1.00
  WS02004402WS02004403 CONDUIT   1375.27     0  02:37      1.75    1.98    1.00
  WS02004403WS02004404 CONDUIT   1375.17     0  02:37      1.75    0.99    1.00
  WS02004404WS02004405 CONDUIT   1376.26     0  02:36      1.75   13.48    1.00
  WS02004405WS02004406 CONDUIT   1375.48     0  02:36      1.75    2.71    1.00
  WS02004406WS02004407 CONDUIT   1376.22     0  02:37      1.75    0.62    1.00
  WS02004407WS02004409 CONDUIT   1376.26     0  02:36      1.86    0.49    1.00
  WS02004409WS02004410 CONDUIT   1376.75     0  02:36      1.75    1.78    1.00
  WS02004410WS02004411 CONDUIT   1377.37     0  02:36      1.75    1.88    1.00
  WS02004411WS02004412 CONDUIT   1377.32     0  02:36      1.75    1.96    1.00
  WS02004412WS02004413 CONDUIT   1378.97     0  02:36      1.76    0.92    1.00
  WS02004413WS02003067 CONDUIT   1379.24     0  02:36      2.11    0.59    0.78
  WS02006109WS02006110 CONDUIT   1122.18     0  02:50      2.23    2.16    1.00
  WS02006110WS02006113 CONDUIT   1122.15     0  02:50      2.23    1.02    1.00
  WS02006111WS02006112 CONDUIT   1122.64     0  02:50      2.23    0.53    1.00
  WS02006112WS02006115 CONDUIT   1375.66     0  02:37      1.75    0.81    1.00
  WS02006113WS02006111 CONDUIT   1122.52     0  02:50      2.82    1.35    1.00
  WS02006115WS02006116 CONDUIT   1375.77     0  02:37      1.75    1.77    1.00
  WS02006116WS02004401 CONDUIT   1374.63     0  02:37      1.75    1.89    1.00
  WS02006228WS02006109 CONDUIT   1287.69     0  02:31      2.56    5.63    1.00
  WS02006229WS02006228 CONDUIT   1288.82     0  02:34      2.56    4.27    1.00
  WS02006230WS02006229 CONDUIT   1015.71     0  02:30      2.64   22.60    1.00
  WS02006231WS02006230 CONDUIT    453.26     0  02:53      1.18    6.88    1.00
  WS02006232WS02006231 CONDUIT    453.44     0  02:54      1.18    0.95    1.00
  WS02006234WS02006232 CONDUIT    453.46     0  02:14      1.42    0.92    1.00
  WS02006235WS02006234 CONDUIT    472.98     0  01:26      1.26    4.99    1.00
  WS02006238WS02006235 CONDUIT    479.29     0  01:26      1.45    1.07    1.00
  WS02006239WS02006238 CONDUIT    485.50     0  01:26      1.26    1.55    1.00
  WS02006240WS02006239 CONDUIT    531.91     0  01:26      1.41    1.67    1.00
  WS02006242WS02006240 CONDUIT    577.96     0  01:25      1.61    2.30    1.00
  WS02006243WS02006242 CONDUIT    583.40     0  01:25      1.52    1.25    1.00
  WS02006245WS02006243 CONDUIT    600.88     0  01:25      1.56    1.78    1.00
  WS02006247WS02006245 CONDUIT    609.34     0  01:25      1.62    4.83    1.00
  WS02006248WS02006247 CONDUIT    623.59     0  01:25      1.64    1.36    1.00
  WS02006249WS02006248 CONDUIT    656.49     0  01:25      1.72    3.60    1.00
  WS02006251WS02006249 CONDUIT   1384.92     0  02:36      3.60    3.99    1.00
  WS02006252WS02006251 CONDUIT    611.70     0  01:19    >50.00    2.25    1.00
  WS02006253WS02006251 CONDUIT   1731.29     0  02:36      4.50    5.19    1.00
  WS02006256WS02006235 CONDUIT    288.93     0  00:00      4.23    3.06    1.00
  WS02006280WS02006229 CONDUIT   2305.09     0  02:31      3.93    0.49    1.00
  WS02006284WS02006280 CONDUIT   2303.05     0  02:31      3.00    0.96    1.00
  WS02006287WS02006284 CONDUIT   2302.93     0  02:36      2.93    1.07    1.00
  WSF200WS02003060     CONDUIT   1384.35     0  02:37      2.33    0.31    0.52
  YS02001580YS02001583 CONDUIT    321.07     0  01:24      1.23    1.24    1.00
  YS02001583YS02001586 CONDUIT    314.80     0  01:24      1.38    0.48    1.00
  YS02001586YS02001590 CONDUIT    317.93     0  01:47      1.37    0.56    1.00
  YS02001590YS02001593 CONDUIT    317.95     0  01:36      1.12    2.00    1.00
  YS02001593YS02001596 CONDUIT    318.04     0  01:36      1.75    0.50    1.00
  YS02001596YS02001600 CONDUIT    318.06     0  01:36      1.19    0.62    1.00
  YS02001600YS02001601 CONDUIT    317.99     0  01:54      1.12    0.55    1.00
  YS02001601YS02001602 CONDUIT    602.95     0  01:24      2.13    2.18    1.00
  YS02001602YS02001605 CONDUIT    602.79     0  01:24      2.13   12.76    1.00
  YS02001605YS02001607 CONDUIT    602.67     0  01:24      2.13    3.30    1.00
  YS02001607YS02001610 CONDUIT    574.79     0  01:24      0.82    0.55    1.00
  YS02001610YS02001613 CONDUIT    534.69     0  01:24      0.75    0.62    1.00
  YS02001613YS02001616 CONDUIT    505.49     0  02:05      0.74    0.43    1.00
  YS02001616YS02001619 CONDUIT    505.73     0  02:05      0.67    0.88    1.00
  YS02001619YS02001622 CONDUIT    983.58     0  01:24      1.57    1.45    1.00
  YS02001622YS02001625 CONDUIT    893.61     0  01:29      1.14    0.48    1.00
  YS02001625YS02001629 CONDUIT    893.56     0  01:59      1.14    0.42    1.00
  YS02001629YS02163301 CONDUIT    900.55     0  02:00      1.15    1.11    1.00
  YS02001633YS02163601 CONDUIT   1270.83     0  01:25      1.62    1.33    1.00
  YS02001641YS02001644 CONDUIT   1260.20     0  01:25      1.60    4.07    1.00
  YS02001644YS02001647 CONDUIT   1925.20     0  01:25      2.45    1.13    1.00
  YS02001647YS02001649 CONDUIT   1926.10     0  01:25      2.45    1.02    1.00
  YS02001649YS02001757 CONDUIT   2201.61     0  01:26      2.80    1.34    1.00
  YS02001652YS02001649 CONDUIT    995.51     0  01:28      1.27    0.49    1.00
  YS02001655YS02001652 CONDUIT    995.38     0  01:28      1.89    0.48    1.00
  YS02001658YS02001655 CONDUIT    995.12     0  01:28      2.25    0.42    1.00
  YS02001661YS02001658 CONDUIT    994.97     0  01:28      2.62    0.39    1.00
  YS02001664YS02001661 CONDUIT    985.90     0  01:28      2.63    0.31    0.92
  YS02001745YS02001748 CONDUIT    712.52     0  01:27      2.54    0.27    1.00
  YS02001748YS02001751 CONDUIT    647.59     0  01:27      2.04    0.33    1.00
  YS02001751YS02001754 CONDUIT    647.29     0  01:27      1.89    0.31    1.00
  YS02001754YS02001757 CONDUIT    647.24     0  01:27      0.82    0.26    1.00
  YS02001757CaochengTiaoxuchi CONDUIT   3559.28     0  01:27      5.44    1.54    1.00
  YS02001759YS02001757 CONDUIT   1464.13     0  01:27      1.86    1.04    1.00
  YS02001762YS02001759 CONDUIT    824.85     0  01:32      1.05    0.95    1.00
  YS02001765YS02001762 CONDUIT    825.53     0  01:32      1.05    0.77    1.00
  YS02001767YS02001765 CONDUIT    823.54     0  01:32      1.05    1.04    1.00
  YS02001770YS02001767 CONDUIT    823.48     0  01:32      1.12    3.26    1.00
  YS02001774YS02001770 CONDUIT    809.94     0  01:26      1.03    0.52    1.00
  YS02001779YS02001774 CONDUIT    821.69     0  01:26      1.06    0.41    1.00
  YS02001783YS02001784 CONDUIT   1162.62     0  01:26      2.31    1.60    1.00
  YS02001784YS02001785 CONDUIT   1163.62     0  01:26      2.31    2.71    1.00
  YS02001786YS02001788 CONDUIT   1164.16     0  01:26      2.51    2.24    0.90
  YS02001788YS02001790 CONDUIT   1208.67     0  01:26      2.78    0.89    0.84
  YS02001790YS02001791 CONDUIT   1288.34     0  01:30      3.42    1.40    0.70
  YS02001791YS02001793 CONDUIT   1244.55     0  01:29      6.78    0.53    0.44
  YS02001793JiankangQianchi CONDUIT   1244.55     0  01:29      2.50    0.10    0.65
  YS02001882YS02001884 CONDUIT    180.98     0  01:24      0.23    0.21    1.00
  YS02001884YS02001887 CONDUIT    272.19     0  01:24      0.35    0.36    1.00
  YS02001887YS02001890 CONDUIT    812.83     0  01:26      1.03    1.39    1.00
  YS02001890YS02001895 CONDUIT    738.78     0  01:25      0.94    0.34    1.00
  YS02001895YS02001898 CONDUIT    666.65     0  01:25      0.85    1.16    1.00
  YS02001898YS02001901 CONDUIT    575.25     0  01:25      0.73    0.37    1.00
  YS02001901YS02001904 CONDUIT    574.66     0  01:25      0.73    0.89    1.00
  YS02001904YS02001907 CONDUIT    573.14     0  01:25      0.73    0.20    1.00
  YS02001907YS02006553 CONDUIT    787.15     0  01:47      0.87    0.93    1.00
  YS02001910YS02001907 CONDUIT   1289.03     0  01:27      1.64    0.73    1.00
  YS02001915YS02001910 CONDUIT   1288.93     0  01:27      1.64    0.64    1.00
  YS02001918YS02001915 CONDUIT   1037.10     0  01:25      1.32    0.57    1.00
  YS02001920YS02001918 CONDUIT    987.35     0  01:25      1.26    0.96    1.00
  YS02001923YS02001920 CONDUIT   1008.10     0  01:25      1.35    0.45    1.00
  YS02001926YS02001923 CONDUIT   1218.09     0  01:26      1.69    1.74    1.00
  YS02001929YS02001926 CONDUIT    579.06     0  01:26      1.37    0.27    1.00
  YS02006553YS02006556 CONDUIT    787.33     0  01:48      1.00    0.67    1.00
  YS02006556YS02006558 CONDUIT    788.64     0  01:47      1.00    0.62    1.00
  YS02006558YS02006561 CONDUIT   1231.41     0  01:25      4.36    2.72    1.00
  YS02006561YS02001783 CONDUIT   1162.64     0  01:26      2.31    0.60    1.00
  YS02163301YS02001633 CONDUIT    900.67     0  02:00      1.15    0.85    1.00
  YS02163601YS02164001 CONDUIT   1268.67     0  01:25      1.62    1.12    1.00
  YS02164001YS02001641 CONDUIT   1262.94     0  01:25      1.61    1.72    1.00
  YSB1154YSB6556       CONDUIT    591.20     0  02:37      1.54    1.06    1.00
  YSB1171HS02004479    CONDUIT    372.48     0  02:22      0.74    0.25    1.00
  YSB1174YSB1171       CONDUIT    482.93     0  02:36      1.25    0.74    1.00
  YSB6556YSB1171       CONDUIT    592.08     0  02:37      1.54    0.61    1.00
  CC-R1                PUMP      1024.50     0  00:01              1.50
  CC-R2                PUMP      1024.50     0  00:01              1.50
  CC-S1                PUMP       300.00     0  01:13              1.50
  CC-S2                PUMP       300.00     0  00:01              1.50
  JK-R1                PUMP      1500.00     0  02:31              1.50
  JK-R2                PUMP      1500.00     0  01:24              1.50
  JK-S                 PUMP       450.00     0  00:11              1.50
  XR-1                 PUMP        95.00     0  00:00              1.00
  XR-2                 PUMP        95.00     0  00:00              1.00
  XR-3                 PUMP        95.00     0  00:00              1.00
  XR-4                 PUMP        95.00     0  00:00              1.00
  
  
  ***************************
  Flow Classification Summary
  ***************************
  
  -------------------------------------------------------------------------------------
                      Adjusted    ---------- Fraction of Time in Flow Class ---------- 
                       /Actual         Up    Down  Sub   Sup   Up    Down  Norm  Inlet 
  Conduit               Length    Dry  Dry   Dry   Crit  Crit  Crit  Crit  Ltd   Ctrl  
  -------------------------------------------------------------------------------------
  1                       1.00   0.00  0.00  0.00  0.00  1.00  0.00  0.00  0.30  0.00
  HS02004478WS02006287    1.00   0.13  0.00  0.00  0.53  0.34  0.00  0.00  0.57  0.00
  HS02004479HS02004480    1.00   0.08  0.00  0.00  0.92  0.00  0.00  0.00  0.11  0.00
  HS02004480HS02004478    1.00   0.12  0.00  0.00  0.47  0.00  0.00  0.41  0.00  0.00
  HS02004770HS02004777    1.00   0.00  0.12  0.00  0.88  0.00  0.00  0.00  0.02  0.00
  HS02004777HS02004785    1.00   0.00  0.00  0.00  1.00  0.00  0.00  0.00  0.11  0.00
  HS02004785HS02004788    1.00   0.00  0.00  0.00  1.00  0.00  0.00  0.00  0.00  0.00
  HS02004788HS02004792    1.00   0.00  0.00  0.00  0.96  0.04  0.00  0.00  0.87  0.00
  HS02004792HS02004799    1.00   0.00  0.00  0.00  0.94  0.06  0.00  0.00  0.82  0.00
  HS02004799HS02004480    1.00   0.01  0.07  0.00  0.87  0.00  0.05  0.00  0.00  0.00
  HS02004802HS02004478    1.00   0.12  0.00  0.00  0.88  0.00  0.00  0.00  0.02  0.00
  HS02004807HS02004802    1.00   0.12  0.00  0.00  0.87  0.00  0.00  0.01  0.00  0.00
  HS02004817HS02004807    1.00   0.00  0.12  0.00  0.88  0.00  0.00  0.00  0.01  0.00
  HS02004817HS02004824    1.00   0.00  0.00  0.00  1.00  0.00  0.00  0.00  0.78  0.00
  HS02004824HS02004830    1.00   0.00  0.00  0.00  1.00  0.00  0.00  0.00  0.02  0.00
  HS02004830HS02004837    1.00   0.00  0.00  0.00  0.99  0.01  0.00  0.00  0.84  0.00
  HS02004837HS02004842    1.00   0.00  0.00  0.00  0.98  0.02  0.00  0.00  0.11  0.00
  HS02004842HS02004848    1.00   0.00  0.12  0.00  0.88  0.00  0.00  0.00  0.53  0.00
  HS02004848HS02004852    1.00   0.12  0.00  0.00  0.88  0.00  0.00  0.00  0.68  0.00
  HS02004852HS02004856    1.00   0.12  0.00  0.00  0.88  0.00  0.00  0.00  0.64  0.00
  HS02004856HS02004862    1.00   0.00  0.13  0.00  0.87  0.00  0.00  0.00  0.72  0.00
  HS02004862HS02004870    1.00   0.00  0.00  0.00  1.00  0.00  0.00  0.00  0.02  0.00
  HS02004870HS02004876    1.00   0.02  0.00  0.00  0.97  0.01  0.00  0.00  0.84  0.00
  HS02004876HS02004881    1.00   0.07  0.00  0.00  0.65  0.28  0.00  0.00  0.00  0.00
  HS02004881HS02006253    1.00   0.03  0.06  0.00  0.40  0.02  0.00  0.49  0.12  0.00
  HS02004901HS02004770    1.00   0.12  0.00  0.00  0.88  0.00  0.00  0.00  0.00  0.00
  WS02001211WS02001212    1.00   0.00  0.07  0.00  0.93  0.00  0.00  0.00  0.00  0.00
  WS02001212WS02001213    1.00   0.07  0.00  0.00  0.47  0.00  0.46  0.00  0.00  0.00
  WS02001213WS02003059    1.00   0.00  0.03  0.00  0.97  0.00  0.00  0.00  0.00  0.00
  WS02003059WS02003060    1.00   0.00  0.00  0.00  0.99  0.01  0.00  0.00  0.03  0.00
  WS02003060WS02003069    1.00   0.00  0.00  0.00  0.96  0.04  0.00  0.00  0.51  0.00
  WS02003066WSF200        1.00   0.12  0.00  0.00  0.00  0.88  0.00  0.00  0.61  0.00
  WS02003067WS02003066    1.00   0.11  0.01  0.00  0.89  0.00  0.00  0.00  0.00  0.00
  WS02003069WS02003072    1.00   0.00  0.00  0.00  0.98  0.02  0.00  0.00  0.66  0.00
  WS02003072WS02003073    1.00   0.00  0.00  0.00  0.00  0.00  0.00  1.00  0.00  0.00
  WS02004138WS02004139    1.00   0.00  0.00  0.00  0.93  0.01  0.00  0.06  0.98  0.00
  WS02004139WS02001211    1.00   0.00  0.01  0.00  0.98  0.00  0.01  0.00  0.00  0.00
[...]
  WS02006284WS02006280    1.00   0.12  0.00  0.00  0.19  0.02  0.00  0.67  0.00  0.00
  WS02006287WS02006284    1.00   0.11  0.02  0.00  0.43  0.44  0.00  0.00  0.62  0.00
  WSF200WS02003060        1.00   0.00  0.12  0.00  0.45  0.43  0.00  0.00  0.58  0.00
  YS02001580YS02001583    1.00   0.15  0.55  0.00  0.30  0.00  0.00  0.00  0.72  0.00
  YS02001583YS02001586    1.00   0.32  0.24  0.00  0.44  0.00  0.00  0.00  0.72  0.00
  YS02001586YS02001590    1.00   0.12  0.00  0.00  0.60  0.03  0.00  0.26  0.31  0.00
  YS02001590YS02001593    1.00   0.12  0.00  0.00  0.21  0.00  0.67  0.00  0.00  0.00
  YS02001593YS02001596    1.00   0.12  0.00  0.00  0.23  0.01  0.00  0.63  0.02  0.00
  YS02001596YS02001600    1.00   0.12  0.00  0.00  0.33  0.02  0.00  0.53  0.06  0.00
  YS02001600YS02001601    1.00   0.12  0.00  0.00  0.88  0.00  0.00  0.00  0.60  0.00
  YS02001601YS02001602    1.00   0.12  0.00  0.00  0.88  0.00  0.00  0.00  0.00  0.00
  YS02001602YS02001605    1.00   0.12  0.00  0.00  0.88  0.00  0.00  0.00  0.00  0.00
  YS02001605YS02001607    1.00   0.12  0.00  0.00  0.88  0.00  0.00  0.00  0.00  0.00
  YS02001607YS02001610    1.00   0.12  0.00  0.00  0.88  0.00  0.00  0.00  0.01  0.00
  YS02001610YS02001613    1.00   0.12  0.00  0.00  0.88  0.00  0.00  0.00  0.00  0.00
  YS02001613YS02001616    1.00   0.12  0.00  0.00  0.88  0.00  0.00  0.00  0.00  0.00
  YS02001616YS02001619    1.00   0.12  0.00  0.00  0.88  0.00  0.00  0.00  0.00  0.00
  YS02001619YS02001622    1.00   0.12  0.00  0.00  0.88  0.00  0.00  0.00  0.35  0.00
  YS02001622YS02001625    1.00   0.12  0.00  0.00  0.88  0.00  0.00  0.00  0.03  0.00
  YS02001625YS02001629    1.00   0.12  0.02  0.00  0.27  0.00  0.60  0.00  0.00  0.00
  YS02001629YS02163301    1.00   0.13  0.00  0.00  0.87  0.00  0.00  0.00  0.00  0.00
  YS02001633YS02163601    1.00   0.00  0.03  0.00  0.97  0.00  0.00  0.00  0.14  0.00
  YS02001641YS02001644    1.00   0.00  0.02  0.00  0.98  0.00  0.00  0.00  0.00  0.00
  YS02001644YS02001647    1.00   0.00  0.13  0.00  0.87  0.00  0.00  0.00  0.00  0.00
  YS02001647YS02001649    1.00   0.00  0.13  0.00  0.47  0.40  0.00  0.00  0.59  0.00
  YS02001649YS02001757    1.00   0.00  0.00  0.00  0.58  0.42  0.00  0.00  0.60  0.00
  YS02001652YS02001649    1.00   0.00  0.00  0.00  0.98  0.02  0.00  0.00  0.73  0.00
  YS02001655YS02001652    1.00   0.00  0.00  0.00  0.29  0.04  0.00  0.67  0.11  0.00
  YS02001658YS02001655    1.00   0.00  0.12  0.00  0.56  0.32  0.00  0.00  0.75  0.00
  YS02001661YS02001658    1.00   0.12  0.00  0.00  0.39  0.48  0.00  0.00  0.79  0.00
  YS02001664YS02001661    1.00   0.12  0.00  0.00  0.65  0.23  0.00  0.00  0.86  0.00
  YS02001745YS02001748    1.00   0.00  0.00  0.00  0.12  0.02  0.00  0.86  0.05  0.00
  YS02001748YS02001751    1.00   0.00  0.00  0.00  0.73  0.27  0.00  0.00  0.82  0.00
  YS02001751YS02001754    1.00   0.00  0.00  0.00  0.22  0.01  0.00  0.78  0.03  0.00
  YS02001754YS02001757    1.00   0.00  0.00  0.00  1.00  0.00  0.00  0.00  0.85  0.00
  YS02001757CaochengTiaoxuchi    1.00   0.00  0.00  0.00  0.89  0.11  0.00  0.00  0.86  0.00
  YS02001759YS02001757    1.00   0.00  0.00  0.00  0.99  0.01  0.00  0.00  0.63  0.00
  YS02001762YS02001759    1.00   0.00  0.00  0.00  1.00  0.00  0.00  0.00  0.02  0.00
  YS02001765YS02001762    1.00   0.00  0.00  0.00  1.00  0.00  0.00  0.00  0.73  0.00
  YS02001767YS02001765    1.00   0.00  0.00  0.00  1.00  0.00  0.00  0.00  0.00  0.00
  YS02001770YS02001767    1.00   0.00  0.00  0.00  1.00  0.00  0.00  0.00  0.00  0.00
  YS02001774YS02001770    1.00   0.00  0.12  0.00  0.73  0.00  0.15  0.00  0.02  0.00
  YS02001779YS02001774    1.00   0.00  0.00  0.00  1.00  0.00  0.00  0.00  0.77  0.00
  YS02001783YS02001784    1.00   0.00  0.14  0.00  0.86  0.00  0.00  0.00  0.57  0.00
  YS02001784YS02001785    1.00   0.00  0.00  0.00  1.00  0.00  0.00  0.00  0.15  0.00
  YS02001786YS02001788    1.00   0.00  0.00  0.00  0.66  0.34  0.00  0.00  0.00  0.00
  YS02001788YS02001790    1.00   0.00  0.00  0.00  0.18  0.82  0.00  0.00  0.80  0.00
  YS02001790YS02001791    1.00   0.00  0.00  0.00  0.06  0.94  0.00  0.00  0.17  0.00
  YS02001791YS02001793    1.00   0.00  0.00  0.00  0.00  1.00  0.00  0.00  0.01  0.00
  YS02001793JiankangQianchi    1.00   0.00  0.00  0.00  0.93  0.07  0.00  0.00  0.98  0.00
  YS02001882YS02001884    1.00   0.13  0.00  0.00  0.87  0.00  0.00  0.00  0.00  0.00
  YS02001884YS02001887    1.00   0.09  0.02  0.00  0.89  0.00  0.00  0.00  0.00  0.00
  YS02001887YS02001890    1.00   0.00  0.00  0.00  0.93  0.00  0.07  0.00  0.00  0.00
  YS02001890YS02001895    1.00   0.01  0.12  0.00  0.87  0.00  0.00  0.00  0.00  0.00
  YS02001895YS02001898    1.00   0.13  0.00  0.00  0.86  0.00  0.01  0.00  0.00  0.00
  YS02001898YS02001901    1.00   0.13  0.00  0.00  0.87  0.00  0.00  0.00  0.00  0.00
  YS02001901YS02001904    1.00   0.13  0.00  0.00  0.87  0.00  0.00  0.00  0.00  0.00
  YS02001904YS02001907    1.00   0.01  0.13  0.00  0.87  0.00  0.00  0.00  0.00  0.00
  YS02001907YS02006553    1.00   0.01  0.06  0.00  0.93  0.00  0.00  0.00  0.00  0.00
  YS02001910YS02001907    1.00   0.00  0.00  0.00  0.93  0.00  0.00  0.07  0.12  0.00
  YS02001915YS02001910    1.00   0.00  0.00  0.00  0.98  0.02  0.00  0.00  0.13  0.00
  YS02001918YS02001915    1.00   0.00  0.02  0.00  0.95  0.03  0.00  0.00  0.75  0.00
  YS02001920YS02001918    1.00   0.00  0.02  0.00  0.98  0.00  0.00  0.00  0.00  0.00
  YS02001923YS02001920    1.00   0.00  0.00  0.00  1.00  0.00  0.00  0.00  0.92  0.00
  YS02001926YS02001923    1.00   0.00  0.10  0.00  0.11  0.00  0.79  0.00  0.00  0.00
  YS02001929YS02001926    1.00   0.00  0.12  0.00  0.88  0.00  0.00  0.00  0.82  0.00
  YS02006553YS02006556    1.00   0.05  0.00  0.00  0.95  0.00  0.00  0.00  0.03  0.00
  YS02006556YS02006558    1.00   0.00  0.01  0.00  0.99  0.00  0.00  0.00  0.00  0.00
  YS02006558YS02006561    1.00   0.13  0.00  0.00  0.10  0.76  0.00  0.00  0.19  0.00
  YS02006561YS02001783    1.00   0.14  0.00  0.00  0.16  0.71  0.00  0.00  0.70  0.00
  YS02163301YS02001633    1.00   0.00  0.13  0.00  0.87  0.00  0.00  0.00  0.00  0.00
  YS02163601YS02164001    1.00   0.00  0.10  0.00  0.90  0.00  0.00  0.00  0.00  0.00
  YS02164001YS02001641    1.00   0.03  0.07  0.00  0.90  0.00  0.00  0.00  0.05  0.00
  YSB1154YSB6556          1.00   0.12  0.00  0.00  0.88  0.00  0.00  0.00  0.01  0.00
  YSB1171HS02004479       1.00   0.08  0.00  0.00  0.91  0.00  0.00  0.01  0.09  0.00
  YSB1174YSB1171          1.00   0.09  0.02  0.00  0.90  0.00  0.00  0.00  0.00  0.00
  YSB6556YSB1171          1.00   0.08  0.04  0.00  0.88  0.00  0.00  0.00  0.00  0.00
  
  
  *************************
  Conduit Surcharge Summary
  *************************
  
  ----------------------------------------------------------------------------
                                                           Hours        Hours 
                         --------- Hours Full --------   Above Full   Capacity
  Conduit                Both Ends  Upstream  Dnstream   Normal Flow   Limited
  ----------------------------------------------------------------------------
  HS02004478WS02006287        0.67      0.67      0.88      0.01         0.01
  HS02004479HS02004480        0.88      0.88      0.91      0.01         0.01
  HS02004480HS02004478        0.78      0.87      0.78      1.98         0.78
  HS02004770HS02004777        0.76      0.76      0.76      0.15         0.10
  HS02004777HS02004785        0.71      0.71      0.76      0.01         0.01
  HS02004785HS02004788        0.69      0.71      0.69      1.64         0.61
  HS02004788HS02004792        0.69      0.69      0.84      0.01         0.01
  HS02004792HS02004799        0.84      0.84      1.01      0.01         0.01
  HS02004799HS02004480        0.87      0.87      1.01      1.13         0.01
  HS02004802HS02004478        0.79      0.79      0.90      0.20         0.01
  HS02004807HS02004802        0.85      0.85      0.89      0.38         0.39
  HS02004817HS02004807        0.85      0.85      1.50      0.01         0.01
  HS02004817HS02004824        0.69      0.69      1.50      0.01         0.01
  HS02004824HS02004830        0.66      0.66      0.69      0.01         0.01
  HS02004830HS02004837        0.60      0.60      0.66      0.01         0.01
  HS02004837HS02004842        0.60      0.60      0.76      0.01         0.01
  HS02004842HS02004848        0.58      0.58      0.76      0.01         0.01
  HS02004848HS02004852        0.58      0.58      0.61      0.01         0.01
  HS02004852HS02004856        0.61      0.61      0.62      0.01         0.01
  HS02004856HS02004862        0.58      0.58      0.63      0.01         0.01
  HS02004862HS02004870        0.62      0.63      0.62      0.29         0.30
  HS02004870HS02004876        0.62      0.62      0.71      0.01         0.01
  HS02004876HS02004881        0.66      0.71      0.66      1.74         0.66
  HS02004881HS02006253        0.66      0.66      1.63      0.01         0.01
  HS02004901HS02004770        0.76      0.76      0.76      0.14         0.01
  WS02003072WS02003073        0.01      0.01      0.01      2.37         0.01
  WS02004401WS02004402        1.82      1.82      1.84      1.71         1.67
  WS02004402WS02004403        1.84      1.84      1.84      1.81         1.80
  WS02004403WS02004404        1.84      1.84      1.92      0.01         0.05
  WS02004404WS02004405        1.91      1.92      1.91      2.91         1.91
  WS02004405WS02004406        1.89      1.91      1.89      2.02         1.89
  WS02004406WS02004407        0.07      0.07      1.89      0.01         0.01
  WS02004407WS02004409        0.07      0.07      1.39      0.01         0.01
  WS02004409WS02004410        1.27      1.39      1.27      1.75         1.27
  WS02004410WS02004411        1.17      1.27      1.17      1.78         1.17
  WS02004411WS02004412        1.05      1.17      1.05      1.80         1.05
  WS02004412WS02004413        1.05      1.05      1.63      0.01         0.01
  WS02004413WS02003067        0.01      0.01      1.63      0.01         0.01
  WS02006109WS02006110        1.98      1.98      2.14      1.99         0.01
  WS02006110WS02006113        1.58      1.58      2.13      0.32         0.01
  WS02006111WS02006112        1.54      1.54      2.27      0.01         0.01
  WS02006112WS02006115        1.76      1.76      2.04      0.01         0.01
  WS02006113WS02006111        1.56      1.58      1.56      1.70         1.56
  WS02006115WS02006116        1.77      1.77      1.78      1.77         1.75
  WS02006116WS02004401        1.81      1.81      1.82      1.82         1.79
  WS02006228WS02006109        2.12      2.14      2.12      2.37         2.12
  WS02006229WS02006228        2.11      2.12      2.11      2.23         2.11
  WS02006230WS02006229        2.16      2.18      2.16      2.99         0.75
  WS02006231WS02006230        1.90      1.90      1.92      2.52         1.37
  WS02006232WS02006231        1.91      1.91      2.00      0.01         0.20
  WS02006234WS02006232        1.91      1.91      2.00      0.01         0.02
  WS02006235WS02006234        1.87      1.89      1.88      2.24         1.31
  WS02006238WS02006235        1.90      1.90      1.94      0.01         0.37
  WS02006239WS02006238        1.90      1.93      1.91      1.15         0.11
  WS02006240WS02006239        1.85      1.88      1.87      1.13         0.09
  WS02006242WS02006240        1.86      1.86      1.94      1.42         1.19
  WS02006243WS02006242        1.88      1.88      1.91      0.02         0.02
  WS02006245WS02006243        1.85      1.86      1.86      0.05         0.08
  WS02006247WS02006245        1.85      1.87      1.85      2.00         0.34
  WS02006248WS02006247        1.85      1.85      1.86      0.03         0.03
  WS02006249WS02006248        1.84      1.84      1.85      0.52         0.02
  WS02006251WS02006249        1.84      1.86      1.85      1.69         1.62
  WS02006252WS02006251        1.70      2.07      1.95      1.36         0.15
  WS02006253WS02006251        1.84      1.86      1.87      1.02         0.10
  WS02006256WS02006235        2.34      2.49      6.51      0.46         0.03
  WS02006280WS02006229        1.05      1.05      1.21      0.01         0.01
  WS02006284WS02006280        0.92      0.92      1.01      0.01         0.01
  WS02006287WS02006284        0.77      0.77      0.93      0.43         0.43
  YS02001580YS02001583        0.67      0.67      0.69      0.01         0.01
  YS02001583YS02001586        0.68      0.68      0.78      0.01         0.01
  YS02001586YS02001590        0.78      0.78      0.85      0.01         0.01
  YS02001590YS02001593        0.85      0.85      0.87      0.98         0.01
  YS02001593YS02001596        0.86      0.86      0.95      0.01         0.01
  YS02001596YS02001600        0.99      0.99      1.12      0.01         0.01
  YS02001600YS02001601        1.20      1.20      1.61      0.01         0.01
  YS02001601YS02001602        1.43      1.43      1.68      1.16         0.01
  YS02001602YS02001605        1.36      1.36      1.43      2.18         0.01
  YS02001605YS02001607        1.30      1.36      1.30      1.54         1.30
  YS02001607YS02001610        0.77      0.77      0.80      0.01         0.01
  YS02001610YS02001613        0.76      0.76      0.80      0.01         0.01
  YS02001613YS02001616        0.71      0.71      0.76      0.01         0.01
  YS02001616YS02001619        0.70      0.70      0.71      0.01         0.01
  YS02001619YS02001622        0.69      0.70      0.69      0.90         0.67
  YS02001622YS02001625        0.69      0.69      0.90      0.01         0.01
  YS02001625YS02001629        0.61      0.61      0.90      0.01         0.01
  YS02001629YS02163301        0.87      0.87      0.88      0.34         0.35
  YS02001633YS02163601        0.90      0.90      0.93      0.56         0.55
  YS02001641YS02001644        0.73      0.78      0.73      1.70         0.72
  YS02001644YS02001647        0.53      0.53      0.73      0.02         0.01
  YS02001647YS02001649        0.53      0.53      0.61      0.01         0.01
  YS02001649YS02001757        0.60      0.61      0.62      0.47         0.46
  YS02001652YS02001649        0.47      0.47      0.61      0.01         0.01
  YS02001655YS02001652        0.25      0.25      0.44      0.01         0.01
  YS02001658YS02001655        0.14      0.14      0.25      0.01         0.01
  YS02001661YS02001658        0.02      0.02      0.14      0.01         0.01
  YS02001664YS02001661        0.01      0.01      0.02      0.01         0.01
  YS02001745YS02001748        0.01      0.01      0.03      0.01         0.01
  YS02001748YS02001751        0.11      0.11      0.16      0.01         0.01
  YS02001751YS02001754        0.16      0.16      0.25      0.01         0.01
  YS02001754YS02001757        0.27      0.27      0.62      0.01         0.01
  YS02001757CaochengTiaoxuchi        0.34      0.62      0.84      0.47         0.17
  YS02001759YS02001757        0.55      0.55      0.62      0.01         0.04
  YS02001762YS02001759        0.53      0.53      0.55      0.01         0.03
  YS02001765YS02001762        0.49      0.49      0.53      0.01         0.01
  YS02001767YS02001765        0.46      0.46      0.49      0.02         0.05
  YS02001770YS02001767        0.46      0.46      0.46      0.58         0.42
  YS02001774YS02001770        0.44      0.44      0.51      0.01         0.01
  YS02001779YS02001774        0.27      0.27      0.51      0.01         0.01
  YS02001783YS02001784        0.52      0.54      0.52      0.67         0.52
  YS02001784YS02001785        0.42      0.52      0.42      0.91         0.42
  YS02001786YS02001788        0.01      0.42      0.01      0.76         0.01
  YS02001790YS02001791        0.01      0.01      0.01      0.51         0.01
  YS02001793JiankangQianchi        0.01      0.01      7.14      0.01         0.01
  YS02001882YS02001884        0.49      0.49      0.50      0.01         0.01
  YS02001884YS02001887        0.52      0.52      0.54      0.01         0.01
  YS02001887YS02001890        0.55      0.55      0.56      0.11         0.01
  YS02001890YS02001895        0.48      0.48      0.58      0.01         0.01
  YS02001895YS02001898        0.47      0.47      0.48      0.01         0.01
  YS02001898YS02001901        0.48      0.48      0.52      0.01         0.01
  YS02001901YS02001904        0.51      0.51      0.52      0.01         0.01
  YS02001904YS02001907        0.51      0.51      0.74      0.01         0.01
  YS02001907YS02006553        0.93      0.93      1.00      0.01         0.01
  YS02001910YS02001907        0.57      0.57      0.72      0.01         0.01
  YS02001915YS02001910        0.49      0.49      0.57      0.01         0.01
  YS02001918YS02001915        0.41      0.41      0.49      0.01         0.01
  YS02001920YS02001918        0.40      0.41      0.42      0.01         0.01
  YS02001923YS02001920        0.36      0.36      0.42      0.01         0.01
  YS02001926YS02001923        0.03      0.03      0.08      0.01         0.01
  YS02001929YS02001926        0.01      0.01      0.08      0.01         0.01
  YS02006553YS02006556        0.65      0.65      0.74      0.01         0.01
  YS02006556YS02006558        0.69      0.69      0.76      0.01         0.01
  YS02006558YS02006561        0.44      0.64      0.44      0.86         0.44
  YS02006561YS02001783        0.37      0.37      0.54      0.01         0.01
  YS02163301YS02001633        0.88      0.88      0.92      0.01         0.01
  YS02163601YS02164001        0.80      0.80      0.93      0.24         0.01
  YS02164001YS02001641        0.78      0.80      0.78      0.83         0.62
  YSB1154YSB6556              0.97      0.97      1.16      0.03         0.01
  YSB1171HS02004479           0.82      0.82      1.16      0.01         0.01
  YSB1174YSB1171              1.06      1.06      1.41      0.01         0.01
  YSB6556YSB1171              0.97      0.97      1.59      0.01         0.01
  
  
  ***************
  Pumping Summary
  ***************
  
  ---------------------------------------------------------------------------------------------------------
                                                  Min       Avg       Max     Total     Power    % Time Off
                        Percent   Number of      Flow      Flow      Flow    Volume     Usage    Pump Curve
  Pump                 Utilized   Start-Ups       LPS       LPS       LPS  10^6 ltr     Kw-hr    Low   High
  ---------------------------------------------------------------------------------------------------------
  CC-R1                   11.19          14      0.00    903.43   1024.50     2.881     49.96    0.0   59.4
  CC-R2                   21.71         114      0.00   1022.44   1024.50     6.385    111.02    0.0   54.6
  CC-S1                   18.76         112      0.00    261.80    300.00     1.411     11.37    0.0    0.0
  CC-S2                   19.16          30      0.00    296.73    300.00     1.631     13.12    0.0    0.0
  JK-R1                    2.16          23      0.00   1015.01   1500.00     0.638      7.88    0.0    0.0
  JK-R2                    5.38          51      0.00   1489.62   1500.00     2.302     15.23    0.0    0.0
  JK-S                     9.90         103      0.00    447.93    450.00     1.274     21.69    0.0    0.0
  XR-1                    97.91           2      0.00     95.00     95.00     2.679      9.60    0.0    0.0
  XR-2                    93.94           2      0.00     95.00     95.00     2.570      8.76    0.0    0.0
  XR-3                     0.00           1      0.00     95.00     95.00     0.000      0.00    0.0    0.0
  XR-4                     0.00           1      0.00     95.00     95.00     0.000      0.00    0.0    0.0
  

  Analysis begun on:  Thu Jul 20 19:00:11 2023
  Analysis ended on:  Thu Jul 20 19:00:44 2023
  Total elapsed time: 00:00:33