
  OWA STORM WATER MANAGEMENT MODEL - VERSION v5.1.14 (OWA 2022-07-31)
  --------------------------------------------------------------

  WARNING 04: minimum elevation drop used for Conduit WS02004404WS02004405
  WARNING 03: negative offset ignored for Link YS02001904YS02001907
  
  *********************************************************
  NOTE: The summary statistics displayed in this report are
  based on results found at every computational time step,  
  not just on results from each reporting time step.
  *********************************************************
  
  ****************
  Analysis Options
  ****************
  Flow Units ............... LPS
  Process Models:
    Rainfall/Runoff ........ YES
    RDII ................... NO
    Snowmelt ............... NO
    Groundwater ............ NO
    Flow Routing ........... YES
    Ponding Allowed ........ NO
    Water Quality .......... NO
  Infiltration Method ...... HORTON
  Flow Routing Method ...... DYNWAVE
  Surcharge Method ......... EXTRAN
  Starting Date ............ 08/28/2015 08:00:00
  Ending Date .............. 08/28/2015 16:00:00
  Antecedent Dry Days ...... 8.0
  Report Time Step ......... 00:01:00
  Wet Time Step ............ 00:01:00
  Dry Time Step ............ 00:01:00
  Routing Time Step ........ 30.00 sec
  Variable Time Step ....... YES
  Maximum Trials ........... 8
  Number of Threads ........ 4
  Head Tolerance ........... 0.001500 m
  
  
  **************************        Volume         Depth
  Runoff Quantity Continuity     hectare-m            mm
  **************************     ---------       -------
  Initial LID Storage ......         0.049         1.488
  Total Precipitation ......         6.553       197.548
  Evaporation Loss .........         0.000         0.000
  Infiltration Loss ........         0.084         2.544
  Surface Runoff ...........         5.619       169.390
  Final Storage ............         0.900        27.140
  Continuity Error (%) .....        -0.019
  
  
  **************************        Volume        Volume
  Flow Routing Continuity        hectare-m      10^6 ltr
  **************************     ---------     ---------
  Dry Weather Inflow .......         0.000         0.000
  Wet Weather Inflow .......         5.619        56.195
  Groundwater Inflow .......         0.000         0.000
  RDII Inflow ..............         0.000         0.000
  External Inflow ..........         0.083         0.834
  External Outflow .........         2.167        21.667
  Flooding Loss ............         3.640        36.402
  Evaporation Loss .........         0.000         0.000
  Exfiltration Loss ........         0.000         0.000
  Initial Stored Volume ....         0.243         2.431
  Final Stored Volume ......         0.178         1.783
  Continuity Error (%) .....        -0.661
  
  
  *************************
  Highest Continuity Errors
  *************************
  Node YS02001884 (3.52%)
  Node YS02001583 (-2.87%)
  Node WS02006256 (-2.00%)
  Node WS02006110 (-1.05%)
  
  
  ***************************
  Time-Step Critical Elements
  ***************************
  Link WS02004404WS02004405 (19.96%)
  Link WS02006238WS02006235 (19.78%)
  Link WS02006252WS02006251 (11.63%)
  Link WS02003066WSF200 (11.10%)
  Link WS02006235WS02006234 (10.31%)
  
  
  ********************************
  Highest Flow Instability Indexes
  ********************************
  Link WS02006113WS02006111 (46)
  Link WS02006252WS02006251 (37)
  Link WS02006238WS02006235 (34)
  Link WS02006256WS02006235 (33)
  Link WS02006111WS02006112 (27)
  
  
  *************************
  Routing Time Step Summary
  *************************
  Minimum Time Step           :     0.01 sec
  Average Time Step           :     2.79 sec
  Maximum Time Step           :    30.00 sec
  Percent in Steady State     :    -0.00
  Average Iterations per Step :     4.28
  Percent Not Converging      :    26.23
  
  
  ***************************
  Subcatchment Runoff Summary
  ***************************
  
  ------------------------------------------------------------------------------------------------------------------------------
                            Total      Total      Total      Total     Imperv       Perv      Total       Total     Peak  Runoff
                           Precip      Runon       Evap      Infil     Runoff     Runoff     Runoff      Runoff   Runoff   Coeff
  Subcatchment                 mm         mm         mm         mm         mm         mm         mm    10^6 ltr      LPS
  ------------------------------------------------------------------------------------------------------------------------------
  sub60                    238.15       0.00       0.00       1.48     160.84      20.58     205.34        2.70  2062.90   0.862
  sub61                    238.15       0.00       0.00       2.28     160.69      30.82     210.64        3.87  2864.33   0.884
  sub62                    238.15       0.00       0.00       1.00     171.35      13.98     207.71        5.69  4197.74   0.872
  sub63                    238.15       0.00       0.00       4.23     137.64      52.31     208.97        4.74  3439.42   0.877
  sub64                    238.15       0.00       0.00       2.02     156.78      25.81     205.76        4.94  3606.88   0.864
  sub65                    238.15       0.00       0.00       1.86     169.25      23.59     211.53        5.82  4083.83   0.888
  sub66                    238.15       0.00       0.00       5.03     133.25      49.73     204.69        9.54  6323.56   0.859
  sub67                     81.58       0.00       0.00       0.95      59.50       4.31      63.81        1.19   821.01   0.782
  sub68                     81.58       0.00       0.00       1.66      52.55       7.05      59.60        1.64  1040.10   0.731
  sub69                    238.15       0.00       0.00       1.66     160.34      26.65     208.75        7.73  5478.46   0.877
  sub70                    238.15       0.00       0.00       5.73     128.58      60.56     208.15        6.01  3686.17   0.874
  sub71                     81.58       0.00       0.00       0.88      52.73       3.79      56.51        1.48   857.91   0.693
  sub72                     81.58       0.00       0.00       0.84      56.97       3.53      60.49        0.83   439.81   0.741
  

  ***********************
  LID Performance Summary
  ***********************

  --------------------------------------------------------------------------------------------------------------------
                                         Total      Evap     Infil   Surface    Drain    Initial     Final  Continuity
                                        Inflow      Loss      Loss   Outflow   Outflow   Storage   Storage       Error
  Subcatchment      LID Control             mm        mm        mm        mm        mm        mm        mm           %
  --------------------------------------------------------------------------------------------------------------------
  sub60             GreenRoof           238.15      0.00      0.00    104.78      0.00      7.05    140.42        0.00
  sub61             GreenRoof           238.15      0.00      0.00    104.78      0.00      7.05    140.42        0.00
  sub62             GreenRoof           238.15      0.00      0.00    104.78      0.00      7.05    140.42        0.00
  sub63             GreenRoof           238.15      0.00      0.00    104.78      0.00      7.05    140.42        0.00
  sub64             GreenRoof           238.15      0.00      0.00    104.78      0.00      7.05    140.42        0.00
  sub65             GreenRoof           238.15      0.00      0.00    104.78      0.00      7.05    140.42        0.00
  sub66             GreenRoof           238.15      0.00      0.00    104.78      0.00      7.05    140.42        0.00
  sub67             GreenRoof            81.58      0.00      0.00      0.00      0.00      7.05     88.65       -0.02
  sub68             GreenRoof            81.58      0.00      0.00      0.00      0.00      7.05     88.65       -0.02
  sub69             GreenRoof           238.15      0.00      0.00    104.78      0.00      7.05    140.42        0.00
  sub70             GreenRoof           238.15      0.00      0.00    104.78      0.00      7.05    140.42        0.00
  sub71             GreenRoof            81.58      0.00      0.00      0.00      0.00      7.05     88.65       -0.02
  sub72             GreenRoof            81.58      0.00      0.00      0.00      0.00      7.05     88.65       -0.02
  
  ******************
  Node Depth Summary
  ******************
  
  ---------------------------------------------------------------------------------
                                 Average  Maximum  Maximum  Time of Max    Reported
                                   Depth    Depth      HGL   Occurrence   Max Depth
  Node                 Type       Meters   Meters   Meters  days hr:min      Meters
  ---------------------------------------------------------------------------------
  WS02003060           JUNCTION     0.24     0.38     5.31     0  02:09        0.38
  WS02003066           JUNCTION     0.20     0.30     5.85     0  02:09        0.30
  WS02003067           JUNCTION     0.51     0.70     6.02     0  02:09        0.70
  WS02003069           JUNCTION     0.26     0.43     5.01     0  02:10        0.43
  WS02003072           JUNCTION     0.33     0.50     4.87     0  02:11        0.50
  WS02003073           JUNCTION     0.19     0.30     4.36     0  02:11        0.30
  WS02004401           JUNCTION     0.61     0.85     6.85     0  02:04        0.85
  WS02004402           JUNCTION     0.64     0.88     6.84     0  02:05        0.88
  WS02004403           JUNCTION     0.67     0.89     6.82     0  02:05        0.89
  WS02004404           JUNCTION     0.74     0.96     6.81     0  02:05        0.96
  WS02004405           JUNCTION     0.74     0.95     6.80     0  02:05        0.95
  WS02004406           JUNCTION     0.75     0.96     6.79     0  02:05        0.96
  WS02004407           JUNCTION     0.18     0.30     6.61     0  02:05        0.30
  WS02004409           JUNCTION     0.41     0.67     6.44     0  02:07        0.67
  WS02004410           JUNCTION     0.43     0.68     6.40     0  02:08        0.68
  WS02004411           JUNCTION     0.45     0.69     6.37     0  02:08        0.69
  WS02004412           JUNCTION     0.47     0.70     6.34     0  02:08        0.70
  WS02004413           JUNCTION     0.64     0.86     6.33     0  02:08        0.86
  WS02006109           JUNCTION     0.66     1.24     7.86     0  03:20        0.98
  WS02006110           JUNCTION     0.66     1.45     8.04     0  00:00        0.93
  WS02006111           JUNCTION     0.18     1.67     8.37     0  00:00        0.56
  WS02006112           JUNCTION     0.77     2.68     8.56     0  00:00        1.29
  WS02006113           JUNCTION     0.28     1.50     8.40     0  00:00        0.45
  WS02006115           JUNCTION     0.49     1.69     7.83     0  00:00        0.86
  WS02006116           JUNCTION     0.58     1.11     7.15     0  00:00        0.83
  WS02006228           JUNCTION     0.66     1.64     8.29     0  00:00        1.05
  WS02006229           JUNCTION     0.63     1.31     8.00     0  00:00        1.23
  WS02006230           JUNCTION     0.63     1.57     8.32     0  03:20        1.20
  WS02006231           JUNCTION     0.43     1.59     8.72     0  03:12        0.95
  WS02006232           JUNCTION     0.56     1.56     8.60     0  03:12        1.15
  WS02006234           JUNCTION     0.49     1.96     9.12     0  03:12        1.39
  WS02006235           JUNCTION     0.53     2.00     9.16     0  03:07        2.00
  WS02006238           JUNCTION     0.56     2.15     9.29     0  03:07        2.15
  WS02006239           JUNCTION     0.53     2.03     9.24     0  03:06        2.03
  WS02006240           JUNCTION     0.51     2.10     9.39     0  03:06        2.10
  WS02006242           JUNCTION     0.58     1.55     8.82     0  03:06        1.55
  WS02006243           JUNCTION     0.51     1.48     8.90     0  03:06        1.48
  WS02006245           JUNCTION     0.51     1.36     8.85     0  03:10        1.26
  WS02006247           JUNCTION     0.53     1.35     8.85     0  02:05        1.35
  WS02006248           JUNCTION     0.50     1.10     8.69     0  01:52        1.10
  WS02006249           JUNCTION     0.53     1.09     8.69     0  01:37        1.09
  WS02006251           JUNCTION     0.53     1.46     9.13     0  01:37        1.38
  WS02006252           JUNCTION     0.36     1.50     9.74     0  00:11        1.50
  WS02006256           JUNCTION     0.98     2.35     9.28     0  00:06        2.35
  WSF200               JUNCTION     0.17     0.29     5.52     0  02:09        0.29
  YS02001580           JUNCTION     0.21     0.95     9.49     0  02:05        0.95
  YS02001583           JUNCTION     0.25     0.88     9.37     0  01:34        0.82
  YS02001586           JUNCTION     0.37     1.13     9.30     0  01:34        1.13
  YS02001590           JUNCTION     0.49     1.40     9.26     0  02:05        1.40
  YS02001593           JUNCTION     0.42     1.33     9.19     0  02:05        1.33
  YS02001596           JUNCTION     0.56     1.76     9.18     0  02:05        1.76
  YS02001600           JUNCTION     0.65     1.87     9.00     0  01:34        1.86
  YS02001601           JUNCTION     0.83     2.06     8.90     0  01:33        2.06
  YS02001602           JUNCTION     0.73     1.87     8.77     0  01:44        1.87
  YS02001605           JUNCTION     0.68     1.78     8.68     0  03:01        1.78
  YS02001607           JUNCTION     0.64     1.68     8.53     0  02:05        1.68
  YS02001610           JUNCTION     0.68     1.68     8.48     0  01:46        1.68
  YS02001613           JUNCTION     0.65     1.67     8.51     0  02:28        1.67
  YS02001616           JUNCTION     0.58     1.61     8.52     0  02:05        1.61
  YS02001619           JUNCTION     0.57     1.61     8.54     0  02:05        1.61
  YS02001622           JUNCTION     0.55     1.62     8.52     0  02:05        1.62
  YS02001625           JUNCTION     0.79     1.78     8.38     0  01:47        1.78
  YS02001629           JUNCTION     0.70     1.85     8.40     0  01:54        1.85
  YS02001633           JUNCTION     0.78     2.08     8.53     0  02:05        2.08
  YS02001641           JUNCTION     0.75     1.97     8.41     0  02:16        1.96
  YS02001644           JUNCTION     0.75     1.92     8.35     0  01:54        1.92
  YS02001647           JUNCTION     0.55     1.90     8.51     0  02:05        1.90
  YS02001649           JUNCTION     0.63     2.05     8.44     0  02:05        2.05
  YS02001652           JUNCTION     0.52     2.15     8.75     0  02:23        2.15
  YS02001655           JUNCTION     0.43     2.20     9.05     0  02:20        2.20
  YS02001658           JUNCTION     0.34     2.30     9.44     0  01:54        2.30
  YS02001661           JUNCTION     0.33     2.44     9.85     0  02:22        2.44
  YS02001664           JUNCTION     0.17     2.31    10.23     0  02:22        2.31
  YS02001745           JUNCTION     0.20     1.94     9.45     0  02:24        1.94
  YS02001748           JUNCTION     0.32     2.13     9.21     0  02:24        2.13
  YS02001751           JUNCTION     0.38     2.10     8.98     0  02:24        2.10
  YS02001754           JUNCTION     0.48     2.20     8.81     0  02:05        2.20
  YS02001757           JUNCTION     0.67     2.21     8.47     0  02:05        2.21
  YS02001759           JUNCTION     0.61     2.21     8.57     0  02:05        2.21
  YS02001762           JUNCTION     0.60     2.15     8.55     0  02:13        2.15
  YS02001765           JUNCTION     0.57     2.10     8.55     0  02:13        2.10
  YS02001767           JUNCTION     0.56     2.03     8.52     0  02:13        2.03
  YS02001770           JUNCTION     0.57     1.95     8.44     0  01:57        1.95
  YS02001774           JUNCTION     0.63     2.05     8.47     0  02:05        2.05
  YS02001779           JUNCTION     0.45     1.68     8.37     0  01:57        1.68
  YS02001783           JUNCTION     0.25     1.26     7.40     0  01:36        1.25
  YS02001784           JUNCTION     0.25     1.14     7.21     0  01:36        1.13
  YS02001786           JUNCTION     0.21     1.03     7.06     0  01:35        0.88
  YS02001788           JUNCTION     0.15     0.63     6.61     0  01:36        0.62
  YS02001790           JUNCTION     0.18     0.72     6.37     0  01:43        0.72
  YS02001791           JUNCTION     0.11     0.44     5.91     0  01:37        0.44
  YS02001793           JUNCTION     0.06     0.21     5.04     0  01:41        0.21
  YS02001882           JUNCTION     0.32     1.83     8.55     0  01:35        1.66
  YS02001884           JUNCTION     0.41     1.93     8.55     0  01:35        1.76
  YS02001887           JUNCTION     0.48     1.94     8.48     0  01:35        1.83
  YS02001890           JUNCTION     0.50     1.81     8.32     0  01:35        1.81
  YS02001895           JUNCTION     0.29     1.65     8.39     0  01:35        1.58
  YS02001898           JUNCTION     0.30     1.72     8.46     0  01:35        1.58
  YS02001901           JUNCTION     0.40     1.69     8.30     0  01:36        1.69
  YS02001904           JUNCTION     0.39     1.65     8.28     0  01:35        1.65
  YS02001907           JUNCTION     0.68     1.96     8.25     0  01:35        1.96
  YS02001910           JUNCTION     0.50     2.04     8.55     0  01:35        1.96
  YS02001915           JUNCTION     0.32     2.00     8.72     0  01:35        1.91
  YS02001918           JUNCTION     0.18     1.81     8.88     0  01:35        1.76
  YS02001920           JUNCTION     0.24     2.14     9.15     0  01:36        1.79
  YS02001923           JUNCTION     0.15     2.03     9.29     0  01:36        1.51
  YS02001926           JUNCTION     0.17     1.90     9.35     0  01:36        1.31
  YS02001929           JUNCTION     0.10     1.78     9.47     0  01:36        1.06
  YS02006553           JUNCTION     0.68     1.98     8.27     0  01:36        1.98
  YS02006556           JUNCTION     0.65     1.97     8.28     0  01:36        1.97
  YS02006558           JUNCTION     0.69     2.02     8.29     0  01:36        2.02
  YS02006561           JUNCTION     0.16     0.93     7.59     0  01:36        0.93
  YS02163301           JUNCTION     0.73     2.03     8.55     0  02:05        2.03
  YS02163601           JUNCTION     0.81     2.08     8.48     0  02:18        2.08
  YS02164001           JUNCTION     0.75     1.98     8.43     0  02:18        1.97
  CC-1                 OUTFALL      0.00     0.00     0.00     0  00:00        0.00
  CC-2                 OUTFALL      0.00     0.00     0.00     0  00:00        0.00
  JK-1                 OUTFALL      0.00     0.00     0.00     0  00:00        0.00
  JK-2                 OUTFALL      0.00     0.00     0.00     0  00:00        0.00
  WSC                  OUTFALL      0.18     0.30     0.97     0  02:11        0.30
  CC-storage           STORAGE      1.02     2.22     7.72     0  02:51        2.22
  JK-storage           STORAGE      1.14     3.24     4.04     0  02:33        3.22
  
  
  *******************
  Node Inflow Summary
  *******************
  
  -------------------------------------------------------------------------------------------------
                                  Maximum  Maximum                  Lateral       Total        Flow
                                  Lateral    Total  Time of Max      Inflow      Inflow     Balance
                                   Inflow   Inflow   Occurrence      Volume      Volume       Error
  Node                 Type           LPS      LPS  days hr:min    10^6 ltr    10^6 ltr     Percent
  -------------------------------------------------------------------------------------------------
  WS02003060           JUNCTION     16.53   551.70     0  02:09       0.476        5.73       0.036
  WS02003066           JUNCTION      0.00   535.00     0  02:09           0        5.26       0.024
  WS02003067           JUNCTION      0.00   534.97     0  02:08           0        5.26       0.076
  WS02003069           JUNCTION      0.32   551.87     0  02:10     0.00922        5.74       0.061
  WS02003072           JUNCTION      0.00   551.72     0  02:10           0        5.74       0.111
  WS02003073           JUNCTION      1.82   553.49     0  02:11      0.0524        5.78       0.087
  WS02004401           JUNCTION      0.00  1786.04     0  00:00           0        5.37       0.197
  WS02004402           JUNCTION      0.00  1248.69     0  00:01           0        5.36       0.199
  WS02004403           JUNCTION      0.00   929.44     0  00:01           0        5.35       0.196
  WS02004404           JUNCTION      0.00   877.02     0  00:01           0        5.34       0.158
  WS02004405           JUNCTION      0.00   827.31     0  00:01           0        5.33       0.238
  WS02004406           JUNCTION      0.00   768.45     0  00:02           0        5.32       0.396
  WS02004407           JUNCTION      0.00   535.79     0  02:05           0        5.29       0.016
  WS02004409           JUNCTION      0.00   535.64     0  02:05           0        5.29       0.043
  WS02004410           JUNCTION      0.00   535.34     0  02:06           0        5.29       0.077
  WS02004411           JUNCTION      0.00   535.12     0  02:07           0        5.29       0.099
  WS02004412           JUNCTION      0.00   535.05     0  02:08           0        5.28       0.132
  WS02004413           JUNCTION      0.00   535.12     0  02:08           0        5.28       0.245
  WS02006109           JUNCTION      0.00  1446.81     0  00:00           0        5.26      -0.210
  WS02006110           JUNCTION      0.00   558.20     0  03:20           0        5.24      -1.044
  WS02006111           JUNCTION      0.00  1180.41     0  00:00           0        5.29      -0.805
  WS02006112           JUNCTION      0.00  2307.30     0  00:00           0        5.34      -0.001
  WS02006113           JUNCTION      0.00   567.96     0  03:20           0        5.26      -0.725
  WS02006115           JUNCTION      0.00   953.54     0  00:00           0        5.31      -0.679
  WS02006116           JUNCTION      0.00  1264.47     0  00:00           0        5.34      -0.441
  WS02006228           JUNCTION      0.00   869.18     0  00:00           0        5.24      -0.060
  WS02006229           JUNCTION      0.00   557.38     0  03:20           0        5.23      -0.047
  WS02006230           JUNCTION     10.28   706.67     0  00:00       0.296        5.21      -0.007
  WS02006231           JUNCTION      0.00   610.16     0  03:20           0         4.9      -0.051
  WS02006232           JUNCTION      0.00   606.72     0  03:20           0        4.91       0.156
  WS02006234           JUNCTION      0.00   590.38     0  03:20           0        4.89      -0.173
  WS02006235           JUNCTION      0.00   570.73     0  01:35           0        4.94       0.013
  WS02006238           JUNCTION      0.00   428.66     0  03:52           0        4.22      -0.211
  WS02006239           JUNCTION      0.00   429.37     0  03:09           0        4.18      -0.189
  WS02006240           JUNCTION      0.00   426.66     0  03:52           0        4.16      -0.043
  WS02006242           JUNCTION      0.00   425.80     0  03:52           0        4.14       0.041
  WS02006243           JUNCTION      0.00   426.68     0  03:09           0        4.12      -0.303
  WS02006245           JUNCTION      0.00   427.78     0  03:09           0        4.14       0.334
  WS02006247           JUNCTION      0.00   428.36     0  03:09           0        4.14      -0.037
  WS02006248           JUNCTION      0.00   430.16     0  03:09           0        4.14      -0.000
  WS02006249           JUNCTION      0.00   498.62     0  01:32           0        4.32       0.260
  WS02006251           JUNCTION      0.00   408.19     0  01:37           0        4.33       0.063
  WS02006252           JUNCTION      0.00   400.00     0  00:11           0         4.3      -0.532
  WS02006256           JUNCTION      0.00   300.00     0  00:06           0         1.1      -1.957
  WSF200               JUNCTION      0.00   535.03     0  02:09           0        5.26       0.007
  YS02001580           JUNCTION      0.00    47.19     0  01:33           0     0.00435       1.691
  YS02001583           JUNCTION      0.00    73.06     0  01:32           0      0.0163      -2.793
  YS02001586           JUNCTION   3686.17  3686.17     0  02:25        6.01        6.03       0.005
  YS02001590           JUNCTION      0.00   318.44     0  02:05           0        2.19      -0.026
  YS02001593           JUNCTION      0.00   318.35     0  02:25           0        2.19       0.007
  YS02001596           JUNCTION      0.00   318.18     0  02:35           0        2.19      -0.001
  YS02001600           JUNCTION      0.00   318.97     0  02:05           0        2.19       0.009
  YS02001601           JUNCTION   5478.46  5795.77     0  02:25        7.73        9.92      -0.001
  YS02001602           JUNCTION      0.00   499.88     0  01:33           0        3.23       0.012
  YS02001605           JUNCTION      0.00   500.31     0  01:33           0        2.94       0.018
  YS02001607           JUNCTION      0.00   499.99     0  01:33           0        2.94       0.061
  YS02001610           JUNCTION      0.00   958.49     0  02:24           0        4.38       0.050
  YS02001613           JUNCTION      0.00   622.12     0  02:24           0        3.08       0.047
  YS02001616           JUNCTION      0.00   621.62     0  02:24           0        3.09       0.017
  YS02001619           JUNCTION   6323.56  6323.56     0  02:25        9.55        11.2      -0.005
  YS02001622           JUNCTION      0.00  1054.15     0  02:22           0        6.64       0.001
  YS02001625           JUNCTION      0.00  1505.58     0  02:24           0        7.72       0.149
  YS02001629           JUNCTION      0.00  1139.19     0  02:27           0        4.92      -0.019
  YS02001633           JUNCTION   4083.83  4083.83     0  02:25        5.82        8.88       0.034
  YS02001641           JUNCTION      0.00  1320.91     0  01:45           0        6.23       0.042
  YS02001644           JUNCTION   3606.88  5358.79     0  02:25        4.94        12.1       0.016
  YS02001647           JUNCTION      0.00  1651.97     0  01:46           0        7.05       0.003
  YS02001649           JUNCTION      0.00  3221.06     0  02:25           0        10.8      -0.000
  YS02001652           JUNCTION      0.00  2429.48     0  02:23           0        4.52      -0.033
  YS02001655           JUNCTION      0.00  2731.29     0  02:26           0        4.63       0.029
  YS02001658           JUNCTION      0.00  2783.93     0  02:25           0        4.64      -0.046
  YS02001661           JUNCTION      0.00  2783.99     0  02:26           0        4.64      -0.042
  YS02001664           JUNCTION   3439.42  3439.42     0  02:25        4.74        4.74      -0.001
  YS02001745           JUNCTION   2062.90  2062.90     0  02:24         2.7         2.7       0.041
  YS02001748           JUNCTION      0.00  2065.67     0  02:24           0         2.7      -0.110
  YS02001751           JUNCTION      0.00  2069.68     0  02:24           0         2.7       0.032
  YS02001754           JUNCTION      0.00  2072.92     0  02:24           0         2.7      -0.052
  YS02001757           JUNCTION      0.00  3488.15     0  02:24           0        16.7       0.025
  YS02001759           JUNCTION   2864.33  2864.33     0  02:24        3.87        5.94      -0.013
  YS02001762           JUNCTION      0.00   722.66     0  02:25           0        2.57      -0.006
  YS02001765           JUNCTION      0.00   722.71     0  02:25           0        2.57      -0.008
  YS02001767           JUNCTION      0.00   722.02     0  02:25           0        2.57      -0.006
  YS02001770           JUNCTION   4197.74  4918.15     0  02:25        5.69        6.23      -0.020
  YS02001774           JUNCTION      0.00   852.36     0  02:27           0        1.65       0.061
  YS02001779           JUNCTION      0.00   851.93     0  02:25           0         1.6      -0.026
  YS02001783           JUNCTION      0.00  1167.96     0  01:37           0         3.9      -0.001
  YS02001784           JUNCTION      0.00  1167.73     0  01:36           0         3.9      -0.000
  YS02001786           JUNCTION      0.00  1167.57     0  01:37           0         3.9       0.005
  YS02001788           JUNCTION      0.00  1167.68     0  01:36           0         3.9       0.001
  YS02001790           JUNCTION      0.00  1189.84     0  01:36           0         3.9       0.027
  YS02001791           JUNCTION      0.00  1282.56     0  01:43           0        3.89      -0.037
  YS02001793           JUNCTION      0.00  1237.55     0  01:40           0         3.9       0.001
  YS02001882           JUNCTION      0.00    88.06     0  01:35           0      0.0125       1.489
  YS02001884           JUNCTION      0.00   165.03     0  01:35           0      0.0483       3.645
  YS02001887           JUNCTION    821.01   821.14     0  01:38        1.19        1.22       0.321
  YS02001890           JUNCTION      0.00   820.90     0  01:38           0        1.18       0.360
  YS02001895           JUNCTION      0.00   646.80     0  01:35           0        1.09       0.157
  YS02001898           JUNCTION      0.00   645.38     0  01:35           0        1.09      -0.068
  YS02001901           JUNCTION      0.00   643.40     0  01:35           0        1.09       0.232
  YS02001904           JUNCTION      0.00   641.62     0  01:35           0         1.1       0.219
  YS02001907           JUNCTION      0.00  1846.99     0  01:39           0         3.4       0.485
  YS02001910           JUNCTION      0.00  1326.13     0  01:39           0        2.31       0.269
  YS02001915           JUNCTION    857.91  1325.89     0  01:39        1.48        2.36       0.027
  YS02001918           JUNCTION      0.00   812.77     0  01:35           0       0.914      -0.041
  YS02001920           JUNCTION      0.00   761.31     0  01:36           0       0.889       0.046
  YS02001923           JUNCTION      0.00  1054.37     0  01:36           0        0.87      -0.122
  YS02001926           JUNCTION      0.00  1317.96     0  01:36           0       0.849      -0.327
  YS02001929           JUNCTION    439.81  1174.58     0  01:36       0.832       0.839      -0.203
  YS02006553           JUNCTION      0.00   787.29     0  01:57           0        2.31       0.480
  YS02006556           JUNCTION      0.00   787.44     0  01:57           0        2.33       0.297
  YS02006558           JUNCTION   1040.10  1186.89     0  01:35        1.64        3.94       0.084
  YS02006561           JUNCTION      0.00  1190.81     0  01:35           0         3.9      -0.005
  YS02163301           JUNCTION      0.00  1139.09     0  02:25           0        4.93       0.029
  YS02163601           JUNCTION      0.00  1323.51     0  01:46           0        6.22       0.082
  YS02164001           JUNCTION      0.00  1322.59     0  01:46           0        6.22       0.036
  CC-1                 OUTFALL       0.00   683.00     0  00:06           0        6.96       0.000
  CC-2                 OUTFALL       0.00   683.00     0  00:06           0        6.01       0.000
  JK-1                 OUTFALL       0.00  1000.00     0  00:06           0       0.116       0.000
  JK-2                 OUTFALL       0.00  1000.00     0  01:29           0         2.8       0.000
  WSC                  OUTFALL       0.00   553.47     0  02:11           0        5.78       0.000
  CC-storage           STORAGE       0.00  2907.52     0  02:01           0        18.6      -0.170
  JK-storage           STORAGE       0.00  1235.89     0  01:41           0        4.05      -0.434
  
  
  **********************
  Node Surcharge Summary
  **********************
  
  Surcharging occurs when water rises above the top of the highest conduit.
  ---------------------------------------------------------------------
                                               Max. Height   Min. Depth
                                   Hours       Above Crown    Below Rim
  Node                 Type      Surcharged         Meters       Meters
  ---------------------------------------------------------------------
  WS02006109           JUNCTION        2.39          0.417        1.403
  WS02006110           JUNCTION        0.60          0.544        1.306
  WS02006111           JUNCTION        0.01          0.856        1.014
  WS02006112           JUNCTION        0.55          1.680        0.000
  WS02006113           JUNCTION        0.01          0.705        1.225
  WS02006115           JUNCTION        0.01          0.682        1.568
  WS02006116           JUNCTION        0.01          0.053        2.237
  WS02006228           JUNCTION        2.37          0.810        1.390
  WS02006229           JUNCTION        2.41          0.510        1.940
  WS02006230           JUNCTION        0.61          0.495        1.075
  WS02006231           JUNCTION        0.71          0.884        0.646
  WS02006232           JUNCTION        2.48          0.857        0.623
  WS02006234           JUNCTION        1.18          1.240        0.000
  WS02006235           JUNCTION        2.36          1.290        0.000
  WS02006238           JUNCTION        2.43          1.430        0.000
  WS02006239           JUNCTION        2.37          1.290        0.000
  WS02006240           JUNCTION        2.41          1.390        0.000
  WS02006242           JUNCTION        2.49          0.820        0.000
  WS02006243           JUNCTION        2.42          0.770        0.000
  WS02006245           JUNCTION        2.41          0.652        0.198
  WS02006247           JUNCTION        2.43          0.642        0.118
  WS02006248           JUNCTION        2.40          0.380        0.000
  WS02006249           JUNCTION        2.41          0.390        0.000
  WS02006251           JUNCTION        0.79          0.430        0.750
  WS02006252           JUNCTION        2.92          1.100        0.000
  WS02006256           JUNCTION        6.30          2.050        0.000
  YS02001580           JUNCTION        1.46          0.353        0.097
  YS02001583           JUNCTION        1.47          0.239        0.261
  YS02001586           JUNCTION        1.60          0.510        0.000
  YS02001590           JUNCTION        1.68          0.750        0.000
  YS02001593           JUNCTION        1.67          0.709        0.131
  YS02001596           JUNCTION        1.80          1.029        0.041
  YS02001600           JUNCTION        1.95          1.189        0.001
  YS02001601           JUNCTION        2.19          1.440        0.000
  YS02001602           JUNCTION        2.13          1.270        0.000
  YS02001605           JUNCTION        2.10          1.178        0.002
  YS02001607           JUNCTION        1.68          0.680        0.000
  YS02001610           JUNCTION        1.71          0.680        0.000
  YS02001613           JUNCTION        1.68          0.670        0.030
  YS02001616           JUNCTION        1.63          0.610        0.000
  YS02001619           JUNCTION        1.62          0.610        0.000
  YS02001622           JUNCTION        1.62          0.620        0.000
  YS02001625           JUNCTION        1.83          0.780        0.000
  YS02001629           JUNCTION        1.52          0.470        0.000
  YS02001633           JUNCTION        1.89          1.060        0.000
  YS02001641           JUNCTION        1.84          0.968        0.132
  YS02001644           JUNCTION        1.81          0.920        0.000
  YS02001647           JUNCTION        1.47          0.900        0.000
  YS02001649           JUNCTION        1.61          1.050        0.000
  YS02001652           JUNCTION        1.41          1.122        0.008
  YS02001655           JUNCTION        1.25          1.200        0.000
  YS02001658           JUNCTION        1.01          1.300        0.000
  YS02001661           JUNCTION        0.47          1.374        0.016
  YS02001664           JUNCTION        0.26          1.310        0.000
  YS02001745           JUNCTION        0.25          0.937        0.413
  YS02001748           JUNCTION        0.86          1.051        0.139
  YS02001751           JUNCTION        1.17          1.096        0.104
  YS02001754           JUNCTION        1.35          1.150        0.000
  YS02001757           JUNCTION        1.68          1.210        0.000
  YS02001759           JUNCTION        1.59          1.210        0.000
  YS02001762           JUNCTION        1.56          1.150        0.000
  YS02001765           JUNCTION        1.51          1.100        0.000
  YS02001767           JUNCTION        1.49          1.030        0.000
  YS02001770           JUNCTION        1.47          0.920        0.000
  YS02001774           JUNCTION        1.54          1.050        0.000
  YS02001779           JUNCTION        1.34          0.680        0.000
  YS02001783           JUNCTION        0.54          0.460        1.140
  YS02001784           JUNCTION        0.51          0.340        1.150
  YS02001786           JUNCTION        0.41          0.231        1.199
  YS02001882           JUNCTION        0.48          0.830        0.000
  YS02001884           JUNCTION        0.49          0.870        0.000
  YS02001887           JUNCTION        0.52          0.891        0.059
  YS02001890           JUNCTION        0.54          0.760        0.000
  YS02001895           JUNCTION        0.47          0.647        0.103
  YS02001898           JUNCTION        0.46          0.692        0.048
  YS02001901           JUNCTION        0.51          0.693        0.177
  YS02001904           JUNCTION        0.50          0.650        0.200
  YS02001907           JUNCTION        0.72          0.950        0.000
  YS02001910           JUNCTION        0.56          1.040        0.060
  YS02001915           JUNCTION        0.48          1.000        0.000
  YS02001918           JUNCTION        0.40          0.810        0.000
  YS02001920           JUNCTION        0.41          1.140        0.000
  YS02001923           JUNCTION        0.05          0.820        0.000
  YS02001926           JUNCTION        0.10          0.900        0.000
  YS02001929           JUNCTION        0.01          0.780        0.000
  YS02006553           JUNCTION        0.74          0.982        0.208
  YS02006556           JUNCTION        0.64          0.932        0.418
  YS02006558           JUNCTION        0.63          0.920        0.480
  YS02006561           JUNCTION        0.37          0.128        1.022
  YS02163301           JUNCTION        1.86          1.030        0.000
  YS02163601           JUNCTION        1.95          1.080        0.000
  YS02164001           JUNCTION        1.84          0.977        0.123
  
  
  *********************
  Node Flooding Summary
  *********************
  
  Flooding refers to all water that overflows a node, whether it ponds or not.
  --------------------------------------------------------------------------
                                                             Total   Maximum
                                 Maximum   Time of Max       Flood    Ponded
                        Hours       Rate    Occurrence      Volume     Depth
  Node                 Flooded       LPS   days hr:min    10^6 ltr    Meters
  --------------------------------------------------------------------------
  WS02006112              0.01   1405.86      0  00:00       0.047     0.000
  WS02006234              0.01     54.49      0  03:12       0.000     0.000
  WS02006235              0.01     14.34      0  03:07       0.000     0.000
  WS02006238              0.01     10.62      0  03:07       0.000     0.000
  WS02006239              0.01      8.23      0  03:06       0.000     0.000
  WS02006240              0.01     25.14      0  03:06       0.000     0.000
  WS02006242              0.01     17.83      0  03:12       0.000     0.000
  WS02006243              0.01      2.85      0  03:06       0.000     0.000
  WS02006248              0.02     23.55      0  03:07       0.001     0.000
  WS02006249              0.74    103.88      0  01:37       0.174     0.000
  WS02006252              0.01    240.28      0  01:18       0.001     0.000
  WS02006256              1.01    297.06      0  03:38       0.383     0.000
  YS02001586              1.28   3366.28      0  02:25       3.820     0.000
  YS02001590              0.01      0.22      0  02:05       0.000     0.000
  YS02001601              1.53   5396.53      0  02:25       6.696     0.000
  YS02001602              1.33     62.11      0  02:55       0.287     0.000
  YS02001607              0.01      0.18      0  02:05       0.000     0.000
  YS02001610              1.27    957.70      0  02:24       2.742     0.000
  YS02001616              0.11      2.76      0  02:35       0.000     0.000
  YS02001619              0.48   4647.26      0  02:25       3.101     0.000
  YS02001622              0.01      0.50      0  02:05       0.000     0.000
  YS02001625              1.26   1505.32      0  02:34       4.655     0.000
  YS02001629              0.53    686.94      0  02:27       0.782     0.000
  YS02001633              0.24   2039.28      0  02:25       0.791     0.000
  YS02001644              0.85   5357.89      0  02:25       6.032     0.000
  YS02001647              0.01      2.40      0  02:05       0.000     0.000
  YS02001649              0.25   2373.76      0  02:25       1.250     0.000
  YS02001655              0.12    303.12      0  02:25       0.105     0.000
  YS02001658              0.08    311.61      0  01:54       0.015     0.000
  YS02001664              0.08    656.17      0  02:25       0.106     0.000
  YS02001754              0.01      1.12      0  02:05       0.000     0.000
  YS02001757              0.03     81.47      0  02:24       0.004     0.000
  YS02001759              0.09    732.86      0  02:24       0.131     0.000
  YS02001762              0.05      1.89      0  02:22       0.000     0.000
  YS02001765              0.01      0.12      0  02:13       0.000     0.000
  YS02001767              0.01      0.12      0  02:13       0.000     0.000
  YS02001770              0.38   4066.62      0  02:25       2.521     0.000
  YS02001774              0.01      1.25      0  02:05       0.000     0.000
  YS02001779              0.74    851.55      0  02:27       1.582     0.000
  YS02001882              0.01     77.54      0  01:35       0.000     0.000
  YS02001884              0.01      9.32      0  01:35       0.000     0.000
  YS02001890              0.15    285.52      0  01:38       0.087     0.000
  YS02001907              0.34   1705.89      0  01:39       1.087     0.000
  YS02001915              0.01    160.39      0  01:35       0.000     0.000
  YS02001918              0.01    255.68      0  01:35       0.004     0.000
  YS02001920              0.01     20.02      0  01:36       0.000     0.000
  YS02001923              0.01    173.10      0  01:36       0.000     0.000
  YS02001926              0.01     30.93      0  01:36       0.000     0.000
  YS02001929              0.01    939.11      0  01:36       0.007     0.000
  YS02163301              0.01      0.61      0  02:05       0.000     0.000
  YS02163601              0.01      0.69      0  02:18       0.000     0.000
  
  
  **********************
  Storage Volume Summary
  **********************
  
  --------------------------------------------------------------------------------------------------
                         Average     Avg  Evap Exfil       Maximum     Max    Time of Max    Maximum
                          Volume    Pcnt  Pcnt  Pcnt        Volume    Pcnt     Occurrence    Outflow
  Storage Unit           1000 m3    Full  Loss  Loss       1000 m3    Full    days hr:min        LPS
  --------------------------------------------------------------------------------------------------
  CC-storage               2.844      44     0     0         6.174      96       0  02:51    1766.00
  JK-storage               0.057      20     0     0         0.163      56       0  02:33    2300.00
  
  
  ***********************
  Outfall Loading Summary
  ***********************
  
  -----------------------------------------------------------
                         Flow       Avg       Max       Total
                         Freq      Flow      Flow      Volume
  Outfall Node           Pcnt       LPS       LPS    10^6 ltr
  -----------------------------------------------------------
  CC-1                  51.73    683.00    683.00       6.960
  CC-2                  47.68    683.00    683.00       6.010
  JK-1                   1.28   1000.00   1000.00       0.116
  JK-2                  15.61   1000.00   1000.00       2.804
  WSC                   99.99    266.16    553.47       5.777
  -----------------------------------------------------------
  System                43.26   3632.16    553.47      21.667
  
  
  ********************
  Link Flow Summary
  ********************
  
  -----------------------------------------------------------------------------
                                 Maximum  Time of Max   Maximum    Max/    Max/
                                  |Flow|   Occurrence   |Veloc|    Full    Full
  Link                 Type          LPS  days hr:min     m/sec    Flow   Depth
  -----------------------------------------------------------------------------
  1                    CONDUIT    553.47     0  02:11      2.82    0.19    0.30
  WS02003060WS02003069 CONDUIT    551.55     0  02:10      1.64    0.22    0.34
  WS02003066WSF200     CONDUIT    535.03     0  02:09      2.85    0.09    0.22
  WS02003067WS02003066 CONDUIT    535.00     0  02:09      1.20    0.17    0.42
  WS02003069WS02003072 CONDUIT    551.72     0  02:10      1.37    0.27    0.39
  WS02003072WS02003073 CONDUIT    551.67     0  02:11      1.43    1.19    0.37
  WS02004401WS02004402 CONDUIT   1248.69     0  00:01      2.52    1.50    0.86
  WS02004402WS02004403 CONDUIT    929.44     0  00:01      2.21    1.34    0.88
  WS02004403WS02004404 CONDUIT    877.02     0  00:01      2.01    0.63    0.93
  WS02004404WS02004405 CONDUIT    827.31     0  00:01      2.30    8.11    0.96
  WS02004405WS02004406 CONDUIT    768.45     0  00:02      2.19    1.52    0.96
  WS02004406WS02004407 CONDUIT    535.79     0  02:05      1.04    0.24    0.63
  WS02004407WS02004409 CONDUIT    535.64     0  02:05      2.06    0.19    0.48
  WS02004409WS02004410 CONDUIT    535.34     0  02:06      1.39    0.69    0.67
  WS02004410WS02004411 CONDUIT    535.12     0  02:07      1.32    0.73    0.69
  WS02004411WS02004412 CONDUIT    535.05     0  02:08      1.28    0.76    0.69
  WS02004412WS02004413 CONDUIT    535.12     0  02:08      1.25    0.36    0.78
  WS02004413WS02003067 CONDUIT    534.97     0  02:08      1.11    0.23    0.59
  WS02006109WS02006110 CONDUIT   1446.81     0  00:00      2.88    2.78    1.00
  WS02006110WS02006113 CONDUIT    567.96     0  03:20      1.38    0.52    1.00
  WS02006111WS02006112 CONDUIT   2307.30     0  00:00      9.18    1.10    1.00
  WS02006112WS02006115 CONDUIT    953.54     0  00:00      1.24    0.56    1.00
  WS02006113WS02006111 CONDUIT   1180.41     0  00:00      2.46    1.41    1.00
  WS02006115WS02006116 CONDUIT   1264.47     0  00:00      1.74    1.62    1.00
  WS02006116WS02004401 CONDUIT   1786.04     0  00:00      2.94    2.46    0.84
  WS02006228WS02006109 CONDUIT    869.18     0  00:00      1.91    3.80    1.00
  WS02006229WS02006228 CONDUIT    558.21     0  03:20      1.11    1.85    1.00
  WS02006230WS02006229 CONDUIT    696.39     0  00:00      1.89   15.50    1.00
  WS02006231WS02006230 CONDUIT    599.07     0  03:20      1.91    9.09    1.00
  WS02006232WS02006231 CONDUIT    610.16     0  03:20      1.80    1.28    1.00
  WS02006234WS02006232 CONDUIT    606.72     0  03:20      1.58    1.23    1.00
  WS02006235WS02006234 CONDUIT    590.38     0  03:20      1.63    6.23    1.00
  WS02006238WS02006235 CONDUIT    439.24     0  03:06      1.71    0.98    1.00
  WS02006239WS02006238 CONDUIT    428.66     0  03:52      1.11    1.37    1.00
  WS02006240WS02006239 CONDUIT    429.37     0  03:09      1.24    1.35    1.00
  WS02006242WS02006240 CONDUIT    426.66     0  03:52      1.11    1.69    1.00
  WS02006243WS02006242 CONDUIT    425.80     0  03:52      1.24    0.91    1.00
  WS02006245WS02006243 CONDUIT    426.68     0  03:09      1.42    1.26    1.00
  WS02006247WS02006245 CONDUIT    427.78     0  03:09      1.41    3.39    1.00
  WS02006248WS02006247 CONDUIT    428.36     0  03:09      1.42    0.93    1.00
  WS02006249WS02006248 CONDUIT    430.16     0  03:09      1.39    2.36    1.00
  WS02006251WS02006249 CONDUIT    498.62     0  01:32      1.98    1.44    1.00
  WS02006252WS02006251 CONDUIT    408.19     0  01:37     26.08    1.50    1.00
  WS02006256WS02006235 CONDUIT    286.74     0  00:06      4.12    3.03    1.00
  WSF200WS02003060     CONDUIT    535.17     0  02:09      2.06    0.12    0.28
  YS02001580YS02001583 CONDUIT     47.19     0  01:33      0.42    0.18    1.00
  YS02001583YS02001586 CONDUIT     73.06     0  01:32      0.34    0.11    1.00
  YS02001586YS02001590 CONDUIT    318.44     0  02:05      1.24    0.56    1.00
  YS02001590YS02001593 CONDUIT    318.35     0  02:25      1.13    2.00    1.00
  YS02001593YS02001596 CONDUIT    318.18     0  02:35      1.70    0.50    1.00
  YS02001596YS02001600 CONDUIT    318.97     0  02:05      1.25    0.62    1.00
  YS02001600YS02001601 CONDUIT    319.24     0  02:05      1.13    0.55    1.00
  YS02001601YS02001602 CONDUIT    499.88     0  01:33      1.77    1.81    1.00
  YS02001602YS02001605 CONDUIT    500.31     0  01:33      1.77   10.59    1.00
  YS02001605YS02001607 CONDUIT    499.99     0  01:33      1.77    2.74    1.00
  YS02001607YS02001610 CONDUIT    500.68     0  01:33      0.64    0.48    1.00
  YS02001610YS02001613 CONDUIT    621.63     0  02:24      0.79    0.72    1.00
  YS02001613YS02001616 CONDUIT    622.12     0  02:24      0.79    0.53    1.00
  YS02001616YS02001619 CONDUIT    621.62     0  02:24      0.79    1.08    1.00
  YS02001619YS02001622 CONDUIT   1054.15     0  02:22      1.35    1.55    1.00
  YS02001622YS02001625 CONDUIT   1053.79     0  02:24      1.34    0.56    1.00
  YS02001625YS02001629 CONDUIT    935.05     0  01:45      1.19    0.44    1.00
  YS02001629YS02163301 CONDUIT   1139.19     0  02:27      1.45    1.40    1.00
  YS02001633YS02163601 CONDUIT   1323.51     0  01:46      1.69    1.39    1.00
  YS02001641YS02001644 CONDUIT   1320.15     0  01:45      1.68    4.27    1.00
  YS02001644YS02001647 CONDUIT   1651.97     0  01:46      2.14    0.97    1.00
  YS02001647YS02001649 CONDUIT   1652.44     0  01:46      2.28    0.87    1.00
  YS02001649YS02001757 CONDUIT   1890.66     0  01:46      2.50    1.15    1.00
  YS02001652YS02001649 CONDUIT   2429.43     0  02:27      3.09    1.20    1.00
  YS02001655YS02001652 CONDUIT   2429.48     0  02:23      3.09    1.18    1.00
  YS02001658YS02001655 CONDUIT   2731.29     0  02:26      3.48    1.16    1.00
  YS02001661YS02001658 CONDUIT   2783.93     0  02:25      3.54    1.09    1.00
  YS02001664YS02001661 CONDUIT   2783.99     0  02:26      3.54    0.87    1.00
  YS02001745YS02001748 CONDUIT   2065.67     0  02:24      2.63    0.80    1.00
  YS02001748YS02001751 CONDUIT   2069.68     0  02:24      2.64    1.05    1.00
  YS02001751YS02001754 CONDUIT   2072.92     0  02:24      2.64    1.00    1.00
  YS02001754YS02001757 CONDUIT   2075.49     0  02:24      2.64    0.84    1.00
  YS02001757CaochengTiaoxuchi CONDUIT   2907.52     0  02:01      3.70    1.26    1.00
  YS02001759YS02001757 CONDUIT   1539.19     0  02:26      1.96    1.09    1.00
  YS02001762YS02001759 CONDUIT    722.66     0  02:25      0.92    0.83    1.00
  YS02001765YS02001762 CONDUIT    722.71     0  02:25      0.92    0.68    1.00
  YS02001767YS02001765 CONDUIT    722.02     0  02:25      0.92    0.91    1.00
  YS02001770YS02001767 CONDUIT    721.91     0  02:25      0.92    2.86    1.00
  YS02001774YS02001770 CONDUIT    852.36     0  02:27      1.09    0.54    1.00
  YS02001779YS02001774 CONDUIT    851.93     0  02:25      1.08    0.43    1.00
  YS02001783YS02001784 CONDUIT   1167.73     0  01:36      2.32    1.61    1.00
  YS02001784YS02001785 CONDUIT   1167.57     0  01:37      2.32    2.72    1.00
  YS02001786YS02001788 CONDUIT   1167.68     0  01:36      2.50    2.25    0.89
  YS02001788YS02001790 CONDUIT   1189.84     0  01:36      2.77    0.88    0.84
  YS02001790YS02001791 CONDUIT   1282.56     0  01:43      3.42    1.40    0.70
  YS02001791YS02001793 CONDUIT   1237.55     0  01:40      6.77    0.53    0.41
  YS02001793JiankangQianchi CONDUIT   1235.89     0  01:41      2.48    0.10    0.61
  YS02001882YS02001884 CONDUIT     88.06     0  01:35      0.20    0.10    1.00
  YS02001884YS02001887 CONDUIT    165.03     0  01:35      0.21    0.22    1.00
  YS02001887YS02001890 CONDUIT    820.90     0  01:38      1.05    1.40    1.00
  YS02001890YS02001895 CONDUIT    646.80     0  01:35      0.82    0.30    1.00
  YS02001895YS02001898 CONDUIT    645.38     0  01:35      0.82    1.12    1.00
  YS02001898YS02001901 CONDUIT    643.40     0  01:35      0.82    0.42    1.00
  YS02001901YS02001904 CONDUIT    641.62     0  01:35      0.82    1.00    1.00
  YS02001904YS02001907 CONDUIT    638.45     0  01:35      0.81    0.22    1.00
  YS02001907YS02006553 CONDUIT    787.29     0  01:57      0.87    0.93    1.00
  YS02001910YS02001907 CONDUIT   1326.19     0  01:39      1.69    0.75    1.00
  YS02001915YS02001910 CONDUIT   1326.13     0  01:39      1.69    0.66    1.00
  YS02001918YS02001915 CONDUIT    812.77     0  01:35      1.04    0.45    1.00
  YS02001920YS02001918 CONDUIT    761.31     0  01:36      0.97    0.74    1.00
  YS02001923YS02001920 CONDUIT    790.39     0  01:36      1.06    0.35    1.00
  YS02001926YS02001923 CONDUIT   1019.69     0  01:36      1.45    1.46    1.00
  YS02001929YS02001926 CONDUIT    852.48     0  01:36      1.27    0.40    1.00
  YS02006553YS02006556 CONDUIT    787.44     0  01:57      1.00    0.67    1.00
  YS02006556YS02006558 CONDUIT    789.45     0  01:58      1.01    0.62    1.00
  YS02006558YS02006561 CONDUIT   1190.81     0  01:35      4.21    2.63    1.00
  YS02006561YS02001783 CONDUIT   1167.96     0  01:37      2.32    0.60    1.00
  YS02163301YS02001633 CONDUIT   1139.09     0  02:25      1.45    1.07    1.00
  YS02163601YS02164001 CONDUIT   1322.59     0  01:46      1.68    1.17    1.00
  YS02164001YS02001641 CONDUIT   1320.91     0  01:45      1.68    1.80    1.00
  CC-R1                PUMP       683.00     0  00:06              1.00
  CC-R2                PUMP       683.00     0  00:06              1.00
  CC-S1                PUMP       200.00     0  00:11              1.00
  CC-S2                PUMP       200.00     0  00:06              1.00
  JK-R1                PUMP      1000.00     0  00:06              1.00
  JK-R2                PUMP      1000.00     0  01:29              1.00
  JK-S                 PUMP       300.00     0  00:06              1.00
  
  
  ***************************
  Flow Classification Summary
  ***************************
  
  -------------------------------------------------------------------------------------
                      Adjusted    ---------- Fraction of Time in Flow Class ---------- 
                       /Actual         Up    Down  Sub   Sup   Up    Down  Norm  Inlet 
  Conduit               Length    Dry  Dry   Dry   Crit  Crit  Crit  Crit  Ltd   Ctrl  
  -------------------------------------------------------------------------------------
  1                       1.00   0.00  0.00  0.00  0.00  1.00  0.00  0.00  0.49  0.00
  WS02003060WS02003069    1.00   0.00  0.00  0.00  0.96  0.04  0.00  0.00  0.62  0.00
  WS02003066WSF200        1.00   0.04  0.00  0.00  0.00  0.96  0.00  0.00  0.88  0.00
  WS02003067WS02003066    1.00   0.02  0.02  0.00  0.96  0.00  0.00  0.00  0.00  0.00
  WS02003069WS02003072    1.00   0.00  0.00  0.00  1.00  0.00  0.00  0.00  0.67  0.00
  WS02003072WS02003073    1.00   0.00  0.00  0.00  0.00  0.00  0.00  1.00  0.00  0.00
  WS02004401WS02004402    1.00   0.00  0.00  0.00  1.00  0.00  0.00  0.00  0.00  0.00
  WS02004402WS02004403    1.00   0.00  0.00  0.00  1.00  0.00  0.00  0.00  0.00  0.00
  WS02004403WS02004404    1.00   0.00  0.00  0.00  1.00  0.00  0.00  0.00  0.00  0.00
  WS02004404WS02004405    1.00   0.00  0.00  0.00  1.00  0.00  0.00  0.00  0.00  0.00
  WS02004405WS02004406    1.00   0.00  0.00  0.00  1.00  0.00  0.00  0.00  0.00  0.00
  WS02004406WS02004407    1.00   0.00  0.00  0.00  1.00  0.00  0.00  0.00  0.00  0.00
  WS02004407WS02004409    1.00   0.00  0.00  0.00  0.99  0.00  0.00  0.00  0.99  0.00
  WS02004409WS02004410    1.00   0.00  0.00  0.00  1.00  0.00  0.00  0.00  0.00  0.00
  WS02004410WS02004411    1.00   0.00  0.00  0.00  1.00  0.00  0.00  0.00  0.00  0.00
  WS02004411WS02004412    1.00   0.00  0.00  0.00  1.00  0.00  0.00  0.00  0.00  0.00
  WS02004412WS02004413    1.00   0.01  0.00  0.00  0.99  0.00  0.00  0.00  0.00  0.00
  WS02004413WS02003067    1.00   0.01  0.01  0.00  0.00  0.00  0.98  0.00  0.00  0.00
  WS02006109WS02006110    1.00   0.00  0.00  0.00  1.00  0.00  0.00  0.00  0.00  0.00
  WS02006110WS02006113    1.00   0.00  0.00  0.00  1.00  0.00  0.00  0.00  0.00  0.00
  WS02006111WS02006112    1.00   0.00  0.00  0.00  1.00  0.00  0.00  0.00  1.00  0.00
  WS02006112WS02006115    1.00   0.00  0.00  0.00  1.00  0.00  0.00  0.00  0.00  0.00
  WS02006113WS02006111    1.00   0.00  0.00  0.00  0.00  1.00  0.00  0.00  0.17  0.00
  WS02006115WS02006116    1.00   0.00  0.00  0.00  1.00  0.00  0.00  0.00  0.00  0.00
  WS02006116WS02004401    1.00   0.00  0.00  0.00  1.00  0.00  0.00  0.00  0.00  0.00
  WS02006228WS02006109    1.00   0.00  0.00  0.00  1.00  0.00  0.00  0.00  0.00  0.00
  WS02006229WS02006228    1.00   0.00  0.00  0.00  1.00  0.00  0.00  0.00  0.00  0.00
  WS02006230WS02006229    1.00   0.00  0.00  0.00  1.00  0.00  0.00  0.00  0.02  0.00
  WS02006231WS02006230    1.00   0.00  0.00  0.00  0.49  0.00  0.50  0.00  0.00  0.00
  WS02006232WS02006231    1.00   0.00  0.00  0.00  0.99  0.00  0.01  0.00  0.00  0.00
  WS02006234WS02006232    1.00   0.00  0.00  0.00  1.00  0.00  0.00  0.00  0.08  0.00
  WS02006235WS02006234    1.00   0.00  0.00  0.00  0.87  0.00  0.13  0.00  0.00  0.00
  WS02006238WS02006235    1.00   0.00  0.00  0.00  1.00  0.00  0.00  0.00  0.00  0.00
  WS02006239WS02006238    1.00   0.00  0.00  0.00  0.99  0.00  0.00  0.00  0.24  0.00
  WS02006240WS02006239    1.00   0.01  0.00  0.00  0.77  0.00  0.00  0.21  0.02  0.00
  WS02006242WS02006240    1.00   0.02  0.00  0.00  0.98  0.00  0.01  0.00  0.00  0.00
  WS02006243WS02006242    1.00   0.02  0.00  0.00  0.97  0.00  0.00  0.01  0.54  0.00
  WS02006245WS02006243    1.00   0.02  0.00  0.00  0.85  0.00  0.00  0.14  0.00  0.00
  WS02006247WS02006245    1.00   0.01  0.00  0.00  0.96  0.00  0.00  0.03  0.00  0.00
  WS02006248WS02006247    1.00   0.01  0.00  0.00  0.97  0.00  0.00  0.02  0.48  0.00
  WS02006249WS02006248    1.00   0.01  0.00  0.00  0.66  0.00  0.33  0.00  0.00  0.00
  WS02006251WS02006249    1.00   0.01  0.00  0.00  0.98  0.01  0.00  0.00  0.51  0.00
  WS02006252WS02006251    1.00   0.01  0.30  0.00  0.15  0.00  0.54  0.00  0.00  0.00
  WS02006256WS02006235    1.00   0.00  0.00  0.00  0.99  0.01  0.00  0.00  0.01  0.00
  WSF200WS02003060        1.00   0.00  0.04  0.00  0.24  0.71  0.00  0.00  0.60  0.00
  YS02001580YS02001583    1.00   0.19  0.39  0.00  0.42  0.00  0.00  0.00  0.60  0.00
  YS02001583YS02001586    1.00   0.29  0.17  0.00  0.53  0.00  0.00  0.00  0.61  0.00
  YS02001586YS02001590    1.00   0.13  0.00  0.00  0.66  0.02  0.00  0.19  0.29  0.00
  YS02001590YS02001593    1.00   0.13  0.00  0.00  0.33  0.00  0.54  0.00  0.00  0.00
  YS02001593YS02001596    1.00   0.13  0.00  0.00  0.35  0.01  0.00  0.51  0.02  0.00
  YS02001596YS02001600    1.00   0.13  0.00  0.00  0.41  0.01  0.00  0.46  0.03  0.00
  YS02001600YS02001601    1.00   0.13  0.00  0.00  0.87  0.00  0.00  0.00  0.55  0.00
  YS02001601YS02001602    1.00   0.13  0.00  0.00  0.87  0.00  0.00  0.00  0.00  0.00
  YS02001602YS02001605    1.00   0.13  0.00  0.00  0.87  0.00  0.00  0.00  0.00  0.00
  YS02001605YS02001607    1.00   0.13  0.00  0.00  0.87  0.00  0.00  0.00  0.00  0.00
  YS02001607YS02001610    1.00   0.13  0.00  0.00  0.87  0.00  0.00  0.00  0.00  0.00
  YS02001610YS02001613    1.00   0.13  0.00  0.00  0.87  0.00  0.00  0.00  0.00  0.00
  YS02001613YS02001616    1.00   0.13  0.00  0.00  0.87  0.00  0.00  0.00  0.00  0.00
  YS02001616YS02001619    1.00   0.13  0.00  0.00  0.87  0.00  0.00  0.00  0.00  0.00
  YS02001619YS02001622    1.00   0.13  0.00  0.00  0.87  0.00  0.00  0.00  0.30  0.00
  YS02001622YS02001625    1.00   0.13  0.00  0.00  0.87  0.00  0.00  0.00  0.01  0.00
  YS02001625YS02001629    1.00   0.13  0.01  0.00  0.40  0.00  0.46  0.00  0.00  0.00
  YS02001629YS02163301    1.00   0.13  0.00  0.00  0.86  0.00  0.00  0.00  0.00  0.00
  YS02001633YS02163601    1.00   0.13  0.00  0.00  0.87  0.00  0.00  0.00  0.00  0.00
  YS02001641YS02001644    1.00   0.13  0.00  0.00  0.87  0.00  0.00  0.00  0.00  0.00
  YS02001644YS02001647    1.00   0.13  0.01  0.00  0.86  0.00  0.00  0.00  0.00  0.00
  YS02001647YS02001649    1.00   0.13  0.00  0.00  0.64  0.22  0.00  0.00  0.55  0.00
  YS02001649YS02001757    1.00   0.00  0.13  0.00  0.63  0.24  0.00  0.00  0.10  0.00
  YS02001652YS02001649    1.00   0.13  0.00  0.00  0.86  0.01  0.00  0.00  0.53  0.00
  YS02001655YS02001652    1.00   0.13  0.00  0.00  0.43  0.01  0.00  0.43  0.05  0.00
  YS02001658YS02001655    1.00   0.13  0.00  0.00  0.76  0.11  0.00  0.00  0.58  0.00
  YS02001661YS02001658    1.00   0.13  0.00  0.00  0.53  0.34  0.00  0.00  0.60  0.00
  YS02001664YS02001661    1.00   0.13  0.00  0.00  0.74  0.13  0.00  0.00  0.76  0.00
  YS02001745YS02001748    1.00   0.13  0.00  0.00  0.29  0.01  0.00  0.57  0.04  0.00
  YS02001748YS02001751    1.00   0.13  0.00  0.00  0.77  0.10  0.00  0.00  0.56  0.00
  YS02001751YS02001754    1.00   0.13  0.00  0.00  0.41  0.01  0.00  0.45  0.05  0.00
  YS02001754YS02001757    1.00   0.00  0.13  0.00  0.87  0.00  0.00  0.00  0.55  0.00
  YS02001757CaochengTiaoxuchi    1.00   0.00  0.00  0.00  0.92  0.08  0.00  0.00  0.65  0.00
  YS02001759YS02001757    1.00   0.00  0.13  0.00  0.86  0.01  0.00  0.00  0.49  0.00
  YS02001762YS02001759    1.00   0.13  0.00  0.00  0.87  0.00  0.00  0.00  0.00  0.00
  YS02001765YS02001762    1.00   0.13  0.00  0.00  0.87  0.00  0.00  0.00  0.51  0.00
  YS02001767YS02001765    1.00   0.13  0.00  0.00  0.87  0.00  0.00  0.00  0.00  0.00
  YS02001770YS02001767    1.00   0.13  0.00  0.00  0.87  0.00  0.00  0.00  0.00  0.00
  YS02001774YS02001770    1.00   0.13  0.00  0.00  0.71  0.00  0.16  0.00  0.01  0.00
  YS02001779YS02001774    1.00   0.13  0.27  0.00  0.60  0.00  0.00  0.00  0.52  0.00
  YS02001783YS02001784    1.00   0.17  0.00  0.00  0.83  0.00  0.00  0.00  0.57  0.00
  YS02001784YS02001785    1.00   0.17  0.00  0.00  0.83  0.00  0.00  0.00  0.43  0.00
  YS02001786YS02001788    1.00   0.17  0.00  0.00  0.56  0.27  0.00  0.00  0.00  0.00
  YS02001788YS02001790    1.00   0.17  0.00  0.00  0.22  0.61  0.00  0.00  0.63  0.00
  YS02001790YS02001791    1.00   0.17  0.00  0.00  0.01  0.82  0.00  0.00  0.16  0.00
  YS02001791YS02001793    1.00   0.17  0.00  0.00  0.00  0.82  0.00  0.00  0.00  0.00
  YS02001793JiankangQianchi    1.00   0.00  0.18  0.00  0.75  0.08  0.00  0.00  0.82  0.00
  YS02001882YS02001884    1.00   0.14  0.00  0.00  0.86  0.00  0.00  0.00  0.00  0.00
  YS02001884YS02001887    1.00   0.13  0.00  0.00  0.86  0.00  0.00  0.00  0.00  0.00
  YS02001887YS02001890    1.00   0.13  0.00  0.00  0.86  0.00  0.01  0.00  0.00  0.00
  YS02001890YS02001895    1.00   0.13  0.02  0.00  0.85  0.00  0.00  0.00  0.00  0.00
  YS02001895YS02001898    1.00   0.15  0.00  0.00  0.83  0.00  0.02  0.00  0.00  0.00
  YS02001898YS02001901    1.00   0.15  0.00  0.00  0.85  0.01  0.00  0.00  0.00  0.00
  YS02001901YS02001904    1.00   0.15  0.01  0.00  0.84  0.00  0.00  0.00  0.00  0.00
  YS02001904YS02001907    1.00   0.13  0.03  0.00  0.84  0.00  0.00  0.00  0.00  0.00
  YS02001907YS02006553    1.00   0.13  0.01  0.00  0.86  0.00  0.00  0.00  0.00  0.00
  YS02001910YS02001907    1.00   0.13  0.00  0.00  0.86  0.00  0.00  0.01  0.02  0.00
  YS02001915YS02001910    1.00   0.13  0.00  0.00  0.84  0.03  0.00  0.00  0.01  0.00
  YS02001918YS02001915    1.00   0.13  0.02  0.00  0.85  0.00  0.00  0.00  0.72  0.00
  YS02001920YS02001918    1.00   0.14  0.01  0.00  0.85  0.00  0.00  0.00  0.00  0.00
  YS02001923YS02001920    1.00   0.14  0.00  0.00  0.86  0.00  0.00  0.00  0.78  0.00
  YS02001926YS02001923    1.00   0.13  0.01  0.00  0.10  0.00  0.76  0.00  0.00  0.00
  YS02001929YS02001926    1.00   0.13  0.00  0.00  0.87  0.00  0.00  0.00  0.81  0.00
  YS02006553YS02006556    1.00   0.13  0.00  0.00  0.87  0.00  0.00  0.00  0.01  0.00
  YS02006556YS02006558    1.00   0.13  0.00  0.00  0.87  0.00  0.00  0.00  0.00  0.00
  YS02006558YS02006561    1.00   0.17  0.00  0.00  0.10  0.74  0.00  0.00  0.17  0.00
  YS02006561YS02001783    1.00   0.17  0.00  0.00  0.26  0.57  0.00  0.00  0.70  0.00
  YS02163301YS02001633    1.00   0.13  0.00  0.00  0.87  0.00  0.00  0.00  0.00  0.00
  YS02163601YS02164001    1.00   0.13  0.00  0.00  0.87  0.00  0.00  0.00  0.00  0.00
  YS02164001YS02001641    1.00   0.13  0.00  0.00  0.87  0.00  0.00  0.00  0.00  0.00
  
  
  *************************
  Conduit Surcharge Summary
  *************************
  
  ----------------------------------------------------------------------------
                                                           Hours        Hours 
                         --------- Hours Full --------   Above Full   Capacity
  Conduit                Both Ends  Upstream  Dnstream   Normal Flow   Limited
  ----------------------------------------------------------------------------
  WS02003072WS02003073        0.01      0.01      0.01      1.00         0.01
  WS02004401WS02004402        0.01      0.01      0.01      0.01         0.01
  WS02004402WS02004403        0.01      0.01      0.01      0.02         0.01
  WS02004404WS02004405        0.01      0.01      0.01      3.66         0.01
  WS02004405WS02004406        0.01      0.01      0.01      0.46         0.01
  WS02006109WS02006110        0.60      0.60      2.49      0.67         0.01
  WS02006110WS02006113        0.01      0.01      2.46      0.01         0.01
  WS02006111WS02006112        0.01      0.01      2.74      0.01         0.01
  WS02006112WS02006115        0.01      0.01      0.54      0.01         0.01
  WS02006113WS02006111        0.01      0.01      0.01      0.01         0.01
  WS02006115WS02006116        0.01      0.01      0.01      0.01         0.01
  WS02006116WS02004401        0.01      0.01      0.01      0.02         0.01
  WS02006228WS02006109        2.39      2.49      2.39      2.94         2.38
  WS02006229WS02006228        2.37      2.41      2.37      2.74         2.34
  WS02006230WS02006229        2.57      2.67      2.58      3.84         2.57
  WS02006231WS02006230        0.61      0.61      0.76      3.58         0.01
  WS02006232WS02006231        0.70      0.70      2.48      0.80         0.01
  WS02006234WS02006232        2.24      2.24      2.48      0.77         0.82
  WS02006235WS02006234        1.16      1.17      2.35      3.42         0.04
  WS02006238WS02006235        2.40      2.40      2.49      0.01         0.01
  WS02006239WS02006238        2.42      2.47      2.43      2.64         2.19
  WS02006240WS02006239        2.36      2.42      2.37      2.62         2.04
  WS02006242WS02006240        2.41      2.41      2.55      2.86         0.01
  WS02006243WS02006242        2.43      2.43      2.49      0.01         0.07
  WS02006245WS02006243        2.41      2.42      2.42      2.04         1.80
  WS02006247WS02006245        2.41      2.45      2.41      3.11         2.39
  WS02006248WS02006247        2.41      2.41      2.43      0.01         0.10
  WS02006249WS02006248        2.39      2.40      2.41      3.05         0.01
  WS02006251WS02006249        2.41      2.42      2.41      2.75         2.23
  WS02006252WS02006251        2.88      2.88      2.92      2.89         0.01
  WS02006256WS02006235        3.39      3.49      6.15      0.99         0.07
  YS02001580YS02001583        1.46      1.46      1.52      0.01         0.01
  YS02001583YS02001586        1.47      1.47      1.60      0.01         0.01
  YS02001586YS02001590        1.60      1.60      1.68      0.01         0.01
  YS02001590YS02001593        1.67      1.67      1.70      1.66         0.01
  YS02001593YS02001596        1.69      1.69      1.80      0.01         0.01
  YS02001596YS02001600        1.86      1.86      1.95      0.01         0.01
  YS02001600YS02001601        1.99      1.99      2.19      0.01         0.01
  YS02001601YS02001602        2.13      2.13      2.21      1.91         0.01
  YS02001602YS02001605        2.10      2.10      2.13      2.69         0.01
  YS02001605YS02001607        2.07      2.10      2.09      2.07         1.98
  YS02001607YS02001610        1.68      1.68      1.72      0.01         0.01
  YS02001610YS02001613        1.68      1.68      1.72      0.01         0.01
  YS02001613YS02001616        1.63      1.63      1.68      0.01         0.01
  YS02001616YS02001619        1.62      1.62      1.63      0.48         0.40
  YS02001619YS02001622        1.62      1.62      1.62      1.61         1.49
  YS02001622YS02001625        1.62      1.62      1.83      0.01         0.01
  YS02001625YS02001629        1.52      1.52      1.83      0.01         0.01
  YS02001629YS02163301        1.84      1.84      1.86      0.55         0.25
  YS02001633YS02163601        1.89      1.89      1.95      0.37         0.38
  YS02001641YS02001644        1.81      1.84      1.81      2.24         1.74
  YS02001644YS02001647        1.47      1.47      1.81      0.01         0.01
  YS02001647YS02001649        1.47      1.47      1.61      0.01         0.01
  YS02001649YS02001757        1.60      1.61      1.68      0.32         0.16
  YS02001652YS02001649        1.44      1.44      1.61      0.17         0.17
  YS02001655YS02001652        1.25      1.25      1.41      0.16         0.16
  YS02001658YS02001655        1.01      1.01      1.25      0.12         0.12
  YS02001661YS02001658        0.47      0.47      1.01      0.10         0.10
  YS02001664YS02001661        0.26      0.26      0.59      0.01         0.01
  YS02001745YS02001748        0.25      0.25      0.85      0.01         0.01
  YS02001748YS02001751        0.98      0.98      1.17      0.03         0.03
  YS02001751YS02001754        1.17      1.17      1.35      0.01         0.01
  YS02001754YS02001757        1.39      1.39      1.68      0.01         0.01
  YS02001757CaochengTiaoxuchi        1.66      1.68      2.20      0.89         0.75
  YS02001759YS02001757        1.59      1.59      1.68      0.11         0.07
  YS02001762YS02001759        1.56      1.56      1.59      0.01         0.01
  YS02001765YS02001762        1.51      1.51      1.56      0.01         0.01
  YS02001767YS02001765        1.49      1.49      1.51      0.01         0.01
  YS02001770YS02001767        1.49      1.49      1.49      1.28         0.81
  YS02001774YS02001770        1.47      1.47      1.55      0.01         0.01
  YS02001779YS02001774        1.34      1.34      1.55      0.01         0.01
  YS02001783YS02001784        0.51      0.54      0.51      0.67         0.51
  YS02001784YS02001785        0.41      0.51      0.41      0.90         0.41
  YS02001786YS02001788        0.01      0.41      0.01      0.76         0.01
  YS02001790YS02001791        0.01      0.01      0.01      0.50         0.01
  YS02001793JiankangQianchi        0.01      0.01      2.66      0.01         0.01
  YS02001882YS02001884        0.48      0.48      0.49      0.01         0.01
  YS02001884YS02001887        0.51      0.51      0.52      0.01         0.01
  YS02001887YS02001890        0.54      0.54      0.55      0.12         0.01
  YS02001890YS02001895        0.47      0.47      0.57      0.01         0.01
  YS02001895YS02001898        0.46      0.46      0.47      0.02         0.01
  YS02001898YS02001901        0.47      0.47      0.51      0.01         0.01
  YS02001901YS02001904        0.50      0.50      0.51      0.01         0.01
  YS02001904YS02001907        0.50      0.50      0.74      0.01         0.01
  YS02001907YS02006553        0.92      0.92      0.99      0.01         0.01
  YS02001910YS02001907        0.56      0.56      0.72      0.01         0.01
  YS02001915YS02001910        0.48      0.48      0.56      0.01         0.01
  YS02001918YS02001915        0.40      0.40      0.48      0.01         0.01
  YS02001920YS02001918        0.40      0.40      0.41      0.01         0.01
  YS02001923YS02001920        0.35      0.35      0.41      0.01         0.01
  YS02001926YS02001923        0.05      0.05      0.09      0.01         0.01
  YS02001929YS02001926        0.01      0.01      0.09      0.01         0.01
  YS02006553YS02006556        0.64      0.64      0.74      0.01         0.01
  YS02006556YS02006558        0.68      0.68      0.76      0.01         0.01
  YS02006558YS02006561        0.43      0.63      0.43      0.85         0.43
  YS02006561YS02001783        0.37      0.37      0.54      0.01         0.01
  YS02163301YS02001633        1.86      1.86      1.91      0.24         0.01
  YS02163601YS02164001        1.84      1.84      1.95      0.26         0.01
  YS02164001YS02001641        1.83      1.84      1.84      0.95         0.88
  
  
  ***************
  Pumping Summary
  ***************
  
  ---------------------------------------------------------------------------------------------------------
                                                  Min       Avg       Max     Total     Power    % Time Off
                        Percent   Number of      Flow      Flow      Flow    Volume     Usage    Pump Curve
  Pump                 Utilized   Start-Ups       LPS       LPS       LPS  10^6 ltr     Kw-hr    Low   High
  ---------------------------------------------------------------------------------------------------------
  CC-R1                   35.44          27      0.00    683.00    683.00     6.971    132.67    0.0   56.7
  CC-R2                   30.78          45      0.00    683.00    683.00     6.054    116.32    0.0   56.2
  CC-S1                   37.83          54      0.00    200.00    200.00     2.179     11.11    0.0   26.8
  CC-S2                   37.10          23      0.00    200.00    200.00     2.137     10.85    0.0   27.3
  JK-R1                    0.41          10      0.00   1000.00   1000.00     0.117      0.85    0.0    0.0
  JK-R2                    9.74         102      0.00   1000.00   1000.00     2.806     16.93    0.0    0.0
  JK-S                    12.66         103      0.00    300.00    300.00     1.094     21.40    0.0    0.0
  

  Analysis begun on:  Wed Sep  6 16:00:35 2023
  Analysis ended on:  Wed Sep  6 16:01:13 2023
  Total elapsed time: 00:00:38