
  OWA STORM WATER MANAGEMENT MODEL - VERSION v5.1.14 (OWA 2022-07-31)
  --------------------------------------------------------------

  WARNING 04: minimum elevation drop used for Conduit WS02004404WS02004405
  WARNING 03: negative offset ignored for Link YS02001904YS02001907
  
  *********************************************************
  NOTE: The summary statistics displayed in this report are
  based on results found at every computational time step,  
  not just on results from each reporting time step.
  *********************************************************
  
  ****************
  Analysis Options
  ****************
  Flow Units ............... LPS
  Process Models:
    Rainfall/Runoff ........ YES
    RDII ................... NO
    Snowmelt ............... NO
    Groundwater ............ NO
    Flow Routing ........... YES
    Ponding Allowed ........ NO
    Water Quality .......... NO
  Infiltration Method ...... HORTON
  Flow Routing Method ...... DYNWAVE
  Surcharge Method ......... EXTRAN
  Starting Date ............ 08/28/2015 08:00:00
  Ending Date .............. 08/28/2015 16:00:00
  Antecedent Dry Days ...... 8.0
  Report Time Step ......... 00:01:00
  Wet Time Step ............ 00:01:00
  Dry Time Step ............ 00:01:00
  Routing Time Step ........ 30.00 sec
  Variable Time Step ....... YES
  Maximum Trials ........... 8
  Number of Threads ........ 4
  Head Tolerance ........... 0.001500 m
  
  
  **************************        Volume         Depth
  Runoff Quantity Continuity     hectare-m            mm
  **************************     ---------       -------
  Initial LID Storage ......         0.072         1.184
  Total Precipitation ......        13.233       218.441
  Evaporation Loss .........         0.000         0.000
  Infiltration Loss ........         0.217         3.582
  Surface Runoff ...........        11.701       193.154
  Final Storage ............         1.390        22.949
  Continuity Error (%) .....        -0.027
  
  
  **************************        Volume        Volume
  Flow Routing Continuity        hectare-m      10^6 ltr
  **************************     ---------     ---------
  Dry Weather Inflow .......         0.630         6.296
  Wet Weather Inflow .......        11.701       117.007
  Groundwater Inflow .......         0.000         0.000
  RDII Inflow ..............         0.000         0.000
  External Inflow ..........         0.105         1.045
  External Outflow .........         3.766        37.664
  Flooding Loss ............         8.667        86.671
  Evaporation Loss .........         0.000         0.000
  Exfiltration Loss ........         0.000         0.000
  Initial Stored Volume ....         0.303         3.031
  Final Stored Volume ......         0.320         3.203
  Continuity Error (%) .....        -0.125
  
  
  *************************
  Highest Continuity Errors
  *************************
  Node YS02001884 (5.10%)
  Node YS02001583 (-2.88%)
  Node HS02004842 (1.38%)
  Node WS02006252 (-1.25%)
  
  
  ***************************
  Time-Step Critical Elements
  ***************************
  Link WS02006280WS02006229 (40.93%)
  Link WS02006252WS02006251 (15.75%)
  Link YS02001791YS02001793 (14.02%)
  Link WS02006238WS02006235 (7.38%)
  Link WS02004404WS02004405 (5.96%)
  
  
  ********************************
  Highest Flow Instability Indexes
  ********************************
  Link WS02006252WS02006251 (40)
  Link WS02006238WS02006235 (39)
  Link WS02004404WS02004405 (34)
  Link WS02006229WS02006228 (30)
  Link WS02004403WS02004404 (30)
  
  
  *************************
  Routing Time Step Summary
  *************************
  Minimum Time Step           :     0.01 sec
  Average Time Step           :     2.36 sec
  Maximum Time Step           :     7.27 sec
  Percent in Steady State     :     0.00
  Average Iterations per Step :     4.59
  Percent Not Converging      :    25.55
  
  
  ***************************
  Subcatchment Runoff Summary
  ***************************
  
  ------------------------------------------------------------------------------------------------------------------------------
                            Total      Total      Total      Total     Imperv       Perv      Total       Total     Peak  Runoff
                           Precip      Runon       Evap      Infil     Runoff     Runoff     Runoff      Runoff   Runoff   Coeff
  Subcatchment                 mm         mm         mm         mm         mm         mm         mm    10^6 ltr      LPS
  ------------------------------------------------------------------------------------------------------------------------------
  sub0                      99.63       0.00       0.00       1.04      91.43       5.94      97.37        0.08    54.45   0.977
  sub1                      99.63       0.00       0.00       1.57      78.38       8.25      86.63        0.58   327.46   0.870
  sub10                     99.63       0.00       0.00       1.00      73.44       5.47      78.92        0.87   516.87   0.792
  sub11                     99.63       0.00       0.00       0.92      68.25       5.10      73.35        0.85   542.20   0.736
  sub12                     99.63       0.00       0.00       1.61      69.38       8.91      78.29        0.68   462.28   0.786
  sub14                     99.63       0.00       0.00       1.00      64.64       5.49      70.13        0.67   417.72   0.704
  sub15                     99.63       0.00       0.00       4.48      58.12      20.78      78.89        1.36   714.15   0.792
  sub16                     99.63       0.00       0.00       4.78      56.68      23.52      80.20        0.84   483.18   0.805
  sub17                     99.63       0.00       0.00       5.11      62.56      24.74      87.29        0.75   419.25   0.876
  sub2                      99.63       0.00       0.00       7.01      57.30      27.13      84.43        0.79   334.99   0.847
  sub22                     99.63       0.00       0.00       7.89      54.25      33.60      87.85        5.55  2589.25   0.882
  sub23                     99.63       0.00       0.00       5.96      55.86      27.30      83.16        3.97  2047.39   0.835
  sub3                      99.63       0.00       0.00       7.51      56.76      26.33      83.09        1.87   721.58   0.834
  sub4                      99.63       0.00       0.00       1.70      77.26       8.00      85.26        1.78   782.17   0.856
  sub5                      99.63       0.00       0.00       0.90      75.82       4.89      80.71        0.91   531.62   0.810
  sub60                    316.61       0.00       0.00       1.49     214.17      27.84     283.23        3.72  3170.84   0.895
  sub61                    316.61       0.00       0.00       2.30     213.97      41.71     288.65        5.30  4396.91   0.912
  sub62                    316.61       0.00       0.00       1.01     228.17      18.92     285.64        7.83  6433.88   0.902
  sub63                    316.61       0.00       0.00       4.29     183.27      70.89     286.93        6.51  5268.51   0.906
  sub64                    316.61       0.00       0.00       2.05     208.77      34.96     283.64        6.81  5513.80   0.896
  sub65                    316.61       0.00       0.00       1.88     225.38      31.95     289.53        7.97  6186.52   0.914
  sub66                    316.61       0.00       0.00       5.14     177.44      67.67     282.51       13.17  9635.15   0.892
  sub67                    316.61       0.00       0.00       0.99     233.84      19.43     288.32        5.36  4566.07   0.911
  sub68                    316.61       0.00       0.00       1.77     206.56      32.00     281.60        7.75  6549.74   0.889
  sub69                    316.61       0.00       0.00       1.69     213.21      35.95     286.67       10.61  8339.22   0.905
  sub7                      99.63       0.00       0.00       1.06      69.28       5.89      75.17        0.25   163.59   0.755
  sub70                    316.61       0.00       0.00       5.89     170.99      82.25     285.99        8.26  5611.68   0.903
  sub71                    316.61       0.00       0.00       0.94     207.33      17.17     276.01        7.22  6062.16   0.872
  sub72                    316.61       0.00       0.00       0.90     224.09      16.05     282.68        3.89  3056.34   0.893
  sub8                      99.63       0.00       0.00       1.04      67.33       5.72      73.05        0.47   293.77   0.733
  sub9                      99.63       0.00       0.00       1.01      65.27       5.54      70.81        0.34   214.00   0.711
  

  ***********************
  LID Performance Summary
  ***********************

  --------------------------------------------------------------------------------------------------------------------
                                         Total      Evap     Infil   Surface    Drain    Initial     Final  Continuity
                                        Inflow      Loss      Loss   Outflow   Outflow   Storage   Storage       Error
  Subcatchment      LID Control             mm        mm        mm        mm        mm        mm        mm           %
  --------------------------------------------------------------------------------------------------------------------
  sub1              GreenRoof            99.63      0.00      0.00      0.00      0.00      7.05    106.68       -0.00
  sub10             GreenRoof            99.63      0.00      0.00      0.00      0.00      7.05    106.68       -0.00
  sub11             GreenRoof            99.63      0.00      0.00      0.00      0.00      7.05    106.68       -0.00
  sub12             GreenRoof            99.63      0.00      0.00      0.00      0.00      7.05    106.68       -0.00
  sub14             GreenRoof            99.63      0.00      0.00      0.00      0.00      7.05    106.68       -0.00
  sub15             GreenRoof            99.63      0.00      0.00      0.00      0.00      7.05    106.68       -0.00
  sub16             GreenRoof            99.63      0.00      0.00      0.00      0.00      7.05    106.68       -0.00
  sub17             GreenRoof            99.63      0.00      0.00      0.00      0.00      7.05    106.68       -0.00
  sub2              GreenRoof            99.63      0.00      0.00      0.00      0.00      7.05    106.68       -0.00
  sub22             GreenRoof            99.63      0.00      0.00      0.00      0.00      7.05    106.68       -0.00
  sub23             GreenRoof            99.63      0.00      0.00      0.00      0.00      7.05    106.68       -0.00
  sub3              GreenRoof            99.63      0.00      0.00      0.00      0.00      7.05    106.68       -0.00
  sub4              GreenRoof            99.63      0.00      0.00      0.00      0.00      7.05    106.68       -0.00
  sub5              GreenRoof            99.63      0.00      0.00      0.00      0.00      7.05    106.68       -0.00
  sub60             GreenRoof           316.61      0.00      0.00    180.56      0.00      7.05    143.11        0.00
  sub61             GreenRoof           316.61      0.00      0.00    180.56      0.00      7.05    143.11        0.00
  sub62             GreenRoof           316.61      0.00      0.00    180.56      0.00      7.05    143.11        0.00
  sub63             GreenRoof           316.61      0.00      0.00    180.56      0.00      7.05    143.11        0.00
  sub64             GreenRoof           316.61      0.00      0.00    180.56      0.00      7.05    143.11        0.00
  sub65             GreenRoof           316.61      0.00      0.00    180.56      0.00      7.05    143.11        0.00
  sub66             GreenRoof           316.61      0.00      0.00    180.56      0.00      7.05    143.11        0.00
  sub67             GreenRoof           316.61      0.00      0.00    180.56      0.00      7.05    143.11        0.00
  sub68             GreenRoof           316.61      0.00      0.00    180.56      0.00      7.05    143.11        0.00
  sub69             GreenRoof           316.61      0.00      0.00    180.56      0.00      7.05    143.11        0.00
  sub7              GreenRoof            99.63      0.00      0.00      0.00      0.00      7.05    106.68       -0.00
  sub70             GreenRoof           316.61      0.00      0.00    180.56      0.00      7.05    143.11        0.00
  sub71             GreenRoof           316.61      0.00      0.00    180.56      0.00      7.05    143.11        0.00
  sub72             GreenRoof           316.61      0.00      0.00    180.56      0.00      7.05    143.11        0.00
  sub8              GreenRoof            99.63      0.00      0.00      0.00      0.00      7.05    106.68       -0.00
  sub9              GreenRoof            99.63      0.00      0.00      0.00      0.00      7.05    106.68       -0.00
  
  ******************
  Node Depth Summary
  ******************
  
  ---------------------------------------------------------------------------------
                                 Average  Maximum  Maximum  Time of Max    Reported
                                   Depth    Depth      HGL   Occurrence   Max Depth
  Node                 Type       Meters   Meters   Meters  days hr:min      Meters
  ---------------------------------------------------------------------------------
  HS02004478           JUNCTION     0.30     1.64    10.87     0  01:23        1.60
  HS02004479           JUNCTION     0.39     1.75    10.96     0  01:23        1.68
  HS02004480           JUNCTION     0.35     1.75    10.99     0  01:23        1.65
  HS02004770           JUNCTION     0.34     1.42    11.25     0  01:22        1.42
  HS02004777           JUNCTION     0.37     1.48    11.28     0  01:22        1.48
  HS02004785           JUNCTION     0.26     1.49    11.39     0  01:23        1.49
  HS02004788           JUNCTION     0.23     1.42    11.32     0  01:23        1.42
  HS02004792           JUNCTION     0.30     1.60    11.12     0  01:22        1.60
  HS02004799           JUNCTION     0.42     1.76    10.97     0  01:23        1.76
  HS02004802           JUNCTION     0.40     1.84    10.97     0  01:23        1.80
  HS02004807           JUNCTION     0.38     1.92    11.09     0  01:23        1.92
  HS02004817           JUNCTION     0.68     2.44    11.29     0  01:23        2.41
  HS02004824           JUNCTION     0.25     2.01    11.41     0  01:23        2.01
  HS02004830           JUNCTION     0.25     2.03    11.50     0  01:23        1.99
  HS02004837           JUNCTION     0.21     2.04    11.62     0  01:23        1.93
  HS02004842           JUNCTION     0.50     2.22    11.49     0  01:24        2.22
  HS02004848           JUNCTION     0.19     2.00    11.60     0  01:27        2.00
  HS02004852           JUNCTION     0.20     2.04    11.55     0  01:25        2.00
  HS02004856           JUNCTION     0.26     2.07    11.50     0  01:25        2.07
  HS02004862           JUNCTION     0.22     2.00    11.38     0  01:24        2.00
  HS02004870           JUNCTION     0.21     2.10    11.39     0  01:24        2.10
  HS02004876           JUNCTION     0.27     2.26    11.29     0  01:25        2.26
  HS02004881           JUNCTION     0.20     2.15    11.18     0  01:25        1.87
  HS02004901           JUNCTION     0.35     1.42    11.24     0  01:22        1.42
  WS02001211           JUNCTION     0.63     0.90     5.74     0  01:30        0.89
  WS02001212           JUNCTION     0.38     0.71     5.77     0  01:30        0.63
  WS02001213           JUNCTION     0.60     1.03     5.80     0  01:29        1.03
  WS02003059           JUNCTION     0.67     1.01     5.70     0  01:32        0.97
  WS02003060           JUNCTION     0.40     0.72     5.65     0  01:31        0.71
  WS02003066           JUNCTION     0.24     0.47     6.02     0  01:26        0.46
  WS02003067           JUNCTION     0.56     0.94     6.26     0  01:25        0.93
  WS02003069           JUNCTION     0.45     0.81     5.39     0  01:31        0.81
  WS02003072           JUNCTION     0.51     0.84     5.21     0  01:32        0.84
  WS02003073           JUNCTION     0.31     0.54     4.60     0  01:33        0.54
  WS02004138           JUNCTION     0.13     0.14     7.39     0  00:29        0.14
  WS02004139           JUNCTION     0.57     0.82     5.73     0  01:31        0.79
  WS02004401           JUNCTION     0.83     2.66     8.66     0  01:22        2.16
  WS02004402           JUNCTION     0.84     2.74     8.70     0  01:22        2.11
  WS02004403           JUNCTION     0.84     3.00     8.93     0  01:22        2.03
  WS02004404           JUNCTION     0.89     3.23     9.08     0  01:22        2.03
  WS02004405           JUNCTION     0.88     3.16     9.01     0  01:22        1.98
  WS02004406           JUNCTION     0.86     3.45     9.28     0  01:22        1.84
  WS02004407           JUNCTION     0.30     1.18     7.49     0  01:25        1.15
  WS02004409           JUNCTION     0.59     1.59     7.36     0  01:25        1.55
  WS02004410           JUNCTION     0.59     1.62     7.34     0  01:24        1.43
  WS02004411           JUNCTION     0.58     1.51     7.19     0  01:24        1.31
  WS02004412           JUNCTION     0.58     1.28     6.92     0  01:24        1.19
  WS02004413           JUNCTION     0.70     1.74     7.21     0  01:24        1.19
  WS02006109           JUNCTION     1.11     2.64     9.26     0  01:22        2.64
  WS02006110           JUNCTION     1.02     2.76     9.34     0  01:22        2.46
  WS02006111           JUNCTION     0.52     2.68     9.39     0  01:22        1.96
  WS02006112           JUNCTION     1.07     2.68     8.56     0  01:22        2.65
  WS02006113           JUNCTION     0.60     2.68     9.58     0  01:22        1.97
  WS02006115           JUNCTION     0.78     3.26     9.40     0  01:22        2.25
  WS02006116           JUNCTION     0.83     3.35     9.39     0  01:22        2.24
  WS02006228           JUNCTION     1.19     3.03     9.68     0  01:22        3.03
  WS02006229           JUNCTION     1.22     3.25     9.94     0  01:22        3.24
  WS02006230           JUNCTION     1.13     2.65     9.39     0  01:22        2.65
  WS02006231           JUNCTION     0.85     2.22     9.34     0  02:02        2.22
  WS02006232           JUNCTION     0.93     2.18     9.22     0  01:19        2.18
  WS02006234           JUNCTION     0.82     1.96     9.12     0  01:20        1.96
  WS02006235           JUNCTION     0.83     2.00     9.16     0  01:20        1.93
  WS02006238           JUNCTION     0.85     2.15     9.29     0  01:20        1.93
  WS02006239           JUNCTION     0.79     2.03     9.24     0  01:20        1.85
  WS02006240           JUNCTION     0.73     2.10     9.39     0  01:20        1.64
  WS02006242           JUNCTION     0.77     1.55     8.82     0  01:20        1.55
  WS02006243           JUNCTION     0.66     1.48     8.90     0  01:20        1.48
  WS02006245           JUNCTION     0.63     1.56     9.04     0  01:21        1.27
  WS02006247           JUNCTION     0.64     1.47     8.97     0  01:21        1.25
  WS02006248           JUNCTION     0.58     1.10     8.69     0  01:21        1.10
  WS02006249           JUNCTION     0.60     1.09     8.69     0  01:21        1.09
  WS02006251           JUNCTION     0.78     2.21     9.88     0  01:25        2.17
  WS02006252           JUNCTION     0.56     1.50     9.74     0  00:00        1.50
  WS02006253           JUNCTION     0.89     3.32    10.96     0  01:25        3.15
  WS02006256           JUNCTION     1.16     2.35     9.28     0  00:00        2.35
  WS02006280           JUNCTION     0.39     1.83    10.10     0  01:22        1.75
  WS02006284           JUNCTION     0.63     2.08    10.48     0  01:22        1.95
  WS02006287           JUNCTION     0.38     1.81    10.77     0  01:23        1.74
  WSF200               JUNCTION     0.24     0.57     5.80     0  01:25        0.57
  YS02001580           JUNCTION     0.23     0.93     9.47     0  01:25        0.78
  YS02001583           JUNCTION     0.27     0.98     9.48     0  01:25        0.83
  YS02001586           JUNCTION     0.40     1.13     9.30     0  01:25        1.13
  YS02001590           JUNCTION     0.53     1.40     9.26     0  02:02        1.40
  YS02001593           JUNCTION     0.46     1.31     9.17     0  02:27        1.31
  YS02001596           JUNCTION     0.62     1.67     9.09     0  01:25        1.67
  YS02001600           JUNCTION     0.71     1.87     9.00     0  01:25        1.87
  YS02001601           JUNCTION     0.90     2.06     8.90     0  01:25        2.06
  YS02001602           JUNCTION     0.79     1.87     8.77     0  01:38        1.87
  YS02001605           JUNCTION     0.74     1.78     8.68     0  01:41        1.78
  YS02001607           JUNCTION     0.69     1.65     8.49     0  02:00        1.64
  YS02001610           JUNCTION     0.73     1.68     8.48     0  01:41        1.68
  YS02001613           JUNCTION     0.69     1.67     8.51     0  02:27        1.67
  YS02001616           JUNCTION     0.63     1.61     8.52     0  02:02        1.61
  YS02001619           JUNCTION     0.61     1.61     8.54     0  02:13        1.61
  YS02001622           JUNCTION     0.60     1.60     8.51     0  02:19        1.60
  YS02001625           JUNCTION     0.84     1.78     8.38     0  01:41        1.78
  YS02001629           JUNCTION     0.75     1.85     8.40     0  01:55        1.85
  YS02001633           JUNCTION     0.84     2.08     8.53     0  02:18        2.08
  YS02001641           JUNCTION     0.79     1.97     8.41     0  02:24        1.97
  YS02001644           JUNCTION     0.78     1.92     8.35     0  01:55        1.92
  YS02001647           JUNCTION     0.57     1.80     8.41     0  02:18        1.79
  YS02001649           JUNCTION     0.64     2.05     8.44     0  02:18        2.05
  YS02001652           JUNCTION     0.53     2.15     8.75     0  02:27        2.15
  YS02001655           JUNCTION     0.45     2.20     9.05     0  02:27        2.20
  YS02001658           JUNCTION     0.37     2.30     9.44     0  02:27        2.30
  YS02001661           JUNCTION     0.37     2.46     9.86     0  02:27        2.46
  YS02001664           JUNCTION     0.23     2.31    10.23     0  02:27        2.31
  YS02001745           JUNCTION     0.23     2.35     9.87     0  02:35        2.35
  YS02001748           JUNCTION     0.33     2.27     9.35     0  02:33        2.27
  YS02001751           JUNCTION     0.38     2.20     9.08     0  02:33        2.19
  YS02001754           JUNCTION     0.47     2.18     8.79     0  02:36        2.18
  YS02001757           JUNCTION     0.66     2.21     8.47     0  02:27        2.21
  YS02001759           JUNCTION     0.60     2.21     8.57     0  02:27        2.21
  YS02001762           JUNCTION     0.59     2.15     8.55     0  02:27        2.15
  YS02001765           JUNCTION     0.56     2.10     8.55     0  02:27        2.10
  YS02001767           JUNCTION     0.55     2.03     8.52     0  02:27        2.03
  YS02001770           JUNCTION     0.56     1.95     8.44     0  02:17        1.95
  YS02001774           JUNCTION     0.62     2.04     8.46     0  02:27        2.00
  YS02001779           JUNCTION     0.44     1.68     8.37     0  02:02        1.68
  YS02001783           JUNCTION     0.44     1.48     7.62     0  02:39        1.48
  YS02001784           JUNCTION     0.43     1.31     7.38     0  02:38        1.31
  YS02001786           JUNCTION     0.35     0.99     7.02     0  02:38        0.99
  YS02001788           JUNCTION     0.25     0.68     6.66     0  02:38        0.68
  YS02001790           JUNCTION     0.29     0.76     6.40     0  02:27        0.74
  YS02001791           JUNCTION     0.18     0.46     5.93     0  02:38        0.45
  YS02001793           JUNCTION     0.09     0.36     5.19     0  02:30        0.34
  YS02001882           JUNCTION     0.56     1.83     8.55     0  02:27        1.83
  YS02001884           JUNCTION     0.65     1.93     8.55     0  02:28        1.93
  YS02001887           JUNCTION     0.72     2.00     8.54     0  02:27        2.00
  YS02001890           JUNCTION     0.74     1.81     8.32     0  02:01        1.81
  YS02001895           JUNCTION     0.51     1.63     8.38     0  02:27        1.63
  YS02001898           JUNCTION     0.52     1.58     8.32     0  02:19        1.58
  YS02001901           JUNCTION     0.63     1.68     8.29     0  02:46        1.68
  YS02001904           JUNCTION     0.61     1.64     8.27     0  02:02        1.64
  YS02001907           JUNCTION     0.91     1.96     8.25     0  01:43        1.96
  YS02001910           JUNCTION     0.75     2.07     8.57     0  02:27        2.07
  YS02001915           JUNCTION     0.59     2.00     8.72     0  02:18        2.00
  YS02001918           JUNCTION     0.42     1.81     8.88     0  02:25        1.81
  YS02001920           JUNCTION     0.50     2.03     9.04     0  02:40        2.03
  YS02001923           JUNCTION     0.37     1.92     9.18     0  02:38        1.91
  YS02001926           JUNCTION     0.37     1.88     9.33     0  02:38        1.87
  YS02001929           JUNCTION     0.27     1.78     9.47     0  02:27        1.78
  YS02006553           JUNCTION     0.92     2.19     8.47     0  02:27        2.19
  YS02006556           JUNCTION     0.91     2.34     8.65     0  02:39        2.34
  YS02006558           JUNCTION     0.95     2.50     8.77     0  02:27        2.50
  YS02006561           JUNCTION     0.30     1.26     7.92     0  02:27        1.26
  YS02163301           JUNCTION     0.78     1.96     8.47     0  02:02        1.96
  YS02163601           JUNCTION     0.86     2.08     8.48     0  02:39        2.07
  YS02164001           JUNCTION     0.79     2.00     8.46     0  02:27        2.00
  YSB1154              JUNCTION     0.52     2.06    11.12     0  01:27        2.06
  YSB1171              JUNCTION     0.66     1.95    10.85     0  01:23        1.95
  YSB1174              JUNCTION     0.47     1.89    11.00     0  01:23        1.84
  YSB6556              JUNCTION     0.42     1.80    10.97     0  01:23        1.80
  CC-1                 OUTFALL      0.00     0.00     0.00     0  00:00        0.00
  CC-2                 OUTFALL      0.00     0.00     0.00     0  00:00        0.00
  JK-1                 OUTFALL      0.00     0.00     0.00     0  00:00        0.00
  JK-2                 OUTFALL      0.00     0.00     0.00     0  00:00        0.00
  WSC                  OUTFALL      0.31     0.53     1.20     0  01:33        0.53
  CC-storage           STORAGE      0.87     1.88     7.38     0  02:44        1.88
  JK-storage           STORAGE      1.51     4.25     5.05     0  02:25        4.22
  XR-storage           STORAGE      7.76     9.26     7.26     0  08:00        9.26
  
  
  *******************
  Node Inflow Summary
  *******************
  
  -------------------------------------------------------------------------------------------------
                                  Maximum  Maximum                  Lateral       Total        Flow
                                  Lateral    Total  Time of Max      Inflow      Inflow     Balance
                                   Inflow   Inflow   Occurrence      Volume      Volume       Error
  Node                 Type           LPS      LPS  days hr:min    10^6 ltr    10^6 ltr     Percent
  -------------------------------------------------------------------------------------------------
  HS02004478           JUNCTION      0.00  2310.58     0  01:26           0        10.9      -0.014
  HS02004479           JUNCTION      0.00   612.29     0  01:23           0        1.01       0.060
  HS02004480           JUNCTION      0.00  2247.97     0  01:23           0        8.14       0.017
  HS02004770           JUNCTION   2047.39  2047.39     0  01:28        3.97        4.23       0.055
  HS02004777           JUNCTION      0.03   982.90     0  01:22    0.000864        2.29       0.201
  HS02004785           JUNCTION      0.15   982.16     0  01:22     0.00432        2.29       0.008
  HS02004788           JUNCTION    715.82  1099.75     0  01:23        1.41        3.69      -0.011
  HS02004792           JUNCTION   2589.53  3459.34     0  01:28        5.56        9.24      -0.002
  HS02004799           JUNCTION    417.72  1694.34     0  01:23       0.668        7.47       0.045
  HS02004802           JUNCTION      0.00  1233.74     0  01:31           0        2.98       0.133
  HS02004807           JUNCTION    542.20  1723.35     0  01:27       0.852        3.25       0.123
  HS02004817           JUNCTION      0.60  1197.04     0  01:32      0.0173        2.44       0.689
  HS02004824           JUNCTION    782.22  1355.87     0  01:31        1.78        2.73       0.030
  HS02004830           JUNCTION      0.15   868.95     0  01:23     0.00432        1.21       0.061
  HS02004837           JUNCTION    523.22  1174.50     0  01:23        1.05        1.58       0.011
  HS02004842           JUNCTION      0.00  1101.13     0  01:24           0       0.929       1.403
  HS02004848           JUNCTION    721.58  1472.29     0  01:24        1.87        2.52       0.004
  HS02004852           JUNCTION      0.00  1514.37     0  01:24           0        2.26       0.009
  HS02004856           JUNCTION    214.00  1577.12     0  01:24       0.341         2.6       0.054
  HS02004862           JUNCTION    335.19  1748.65     0  01:24       0.793        3.39      -0.011
  HS02004870           JUNCTION    293.77  1983.77     0  01:24       0.467        3.79      -0.045
  HS02004876           JUNCTION    327.46  1946.91     0  01:24       0.576        4.37       0.007
  HS02004881           JUNCTION    163.59  1993.80     0  01:25       0.253        4.62      -0.055
  HS02004901           JUNCTION    483.18   686.19     0  01:29        0.84        1.33       0.118
  WS02001211           JUNCTION      7.35   360.97     0  01:27       0.212        5.46       0.608
  WS02001212           JUNCTION      0.00   526.60     0  01:26           0        5.43       0.289
  WS02001213           JUNCTION      0.00   475.57     0  01:26           0        5.43       0.314
  WS02003059           JUNCTION      0.00   532.87     0  01:25           0        5.44       0.584
  WS02003060           JUNCTION     16.53  1642.11     0  01:32       0.476        15.5       0.094
  WS02003066           JUNCTION      0.00  1416.51     0  01:26           0        9.66       0.015
  WS02003067           JUNCTION      0.00  1377.59     0  01:26           0        9.67       0.045
  WS02003069           JUNCTION      0.32  1611.61     0  01:31     0.00922        15.5       0.101
  WS02003072           JUNCTION      0.00  1595.12     0  01:32           0        15.5       0.136
  WS02003073           JUNCTION      1.82  1596.96     0  01:32      0.0524        15.5       0.138
  WS02004138           JUNCTION      0.00   380.00     0  00:00           0        5.25       0.053
  WS02004139           JUNCTION      0.32   360.10     0  01:28     0.00924        5.26       0.509
  WS02004401           JUNCTION      0.00  1397.73     0  01:25           0        9.77       0.107
  WS02004402           JUNCTION      0.00  1396.45     0  01:25           0        9.76       0.109
  WS02004403           JUNCTION      0.00  1394.61     0  01:25           0        9.75       0.104
  WS02004404           JUNCTION      0.16  1392.96     0  01:24     0.00467        9.75       0.087
  WS02004405           JUNCTION      0.04  1393.81     0  01:24      0.0011        9.74       0.131
  WS02004406           JUNCTION      0.00  1394.48     0  01:24           0        9.72       0.217
  WS02004407           JUNCTION      0.00  1394.55     0  01:24           0         9.7       0.015
  WS02004409           JUNCTION      0.00  1370.24     0  01:26           0         9.7       0.036
  WS02004410           JUNCTION      0.00  1371.88     0  01:26           0         9.7       0.049
  WS02004411           JUNCTION      0.00  1373.27     0  01:26           0        9.69       0.062
  WS02004412           JUNCTION      0.00  1374.50     0  01:26           0        9.69       0.080
  WS02004413           JUNCTION      0.00  1376.93     0  01:26           0        9.68       0.132
  WS02006109           JUNCTION      1.23  1292.19     0  01:26      0.0354         9.5       0.091
  WS02006110           JUNCTION      0.00  1218.03     0  01:22           0        9.06       0.090
  WS02006111           JUNCTION      0.00  1222.88     0  01:22           0        9.05       0.002
  WS02006112           JUNCTION    419.25  1399.85     0  01:25       0.749         9.8       0.189
  WS02006113           JUNCTION      0.00  1218.16     0  01:22           0        9.05       0.024
  WS02006115           JUNCTION      0.00  1399.34     0  01:25           0        9.78       0.069
  WS02006116           JUNCTION      0.00  1398.71     0  01:25           0        9.77       0.002
  WS02006228           JUNCTION      0.00  1291.76     0  01:26           0        9.46       0.034
  WS02006229           JUNCTION      0.00  2311.64     0  01:26           0        12.7       0.053
  WS02006230           JUNCTION     10.28  1029.14     0  01:25       0.296        5.16       0.187
  WS02006231           JUNCTION      0.00   524.26     0  03:30           0         3.5      -0.149
  WS02006232           JUNCTION      0.00   521.50     0  03:29           0         3.5       0.163
  WS02006234           JUNCTION      0.00   517.58     0  03:29           0         3.5      -0.154
  WS02006235           JUNCTION      0.00   509.23     0  03:29           0        3.47       0.109
  WS02006238           JUNCTION      0.00   429.84     0  03:30           0        3.13      -0.178
  WS02006239           JUNCTION      0.00   428.61     0  03:31           0        3.12      -0.139
  WS02006240           JUNCTION      0.00   427.53     0  03:27           0        3.11      -0.030
  WS02006242           JUNCTION      0.00   516.74     0  01:20           0        3.11       0.019
  WS02006243           JUNCTION      0.00   439.64     0  01:20           0        2.61      -0.072
  WS02006245           JUNCTION      0.00   429.47     0  03:31           0        2.62       0.340
  WS02006247           JUNCTION      0.00   431.22     0  03:31           0        2.62      -0.015
  WS02006248           JUNCTION      0.00   450.20     0  01:20           0        2.97      -0.088
  WS02006249           JUNCTION      0.00  1380.80     0  01:27           0        8.05       0.070
  WS02006251           JUNCTION      0.08  1714.91     0  01:27     0.00222        8.35       0.035
  WS02006252           JUNCTION      0.00   934.86     0  01:27           0        4.97      -1.233
  WS02006253           JUNCTION     54.45  1713.45     0  01:27      0.0789        4.77       0.024
  WS02006256           JUNCTION      0.00   450.00     0  00:11           0        1.46      -0.453
  WS02006280           JUNCTION      0.00  2309.65     0  01:26           0        10.9      -0.005
  WS02006284           JUNCTION      0.10  2310.72     0  01:26     0.00275        10.9       0.013
  WS02006287           JUNCTION      0.00  2311.31     0  01:26           0        10.9       0.012
  WSF200               JUNCTION      0.00  1425.90     0  01:26           0        9.66       0.008
  YS02001580           JUNCTION      0.00    58.46     0  01:25           0     0.00436       0.345
  YS02001583           JUNCTION      0.00    86.82     0  01:25           0      0.0163      -2.799
  YS02001586           JUNCTION   5611.68  5611.73     0  02:36        8.26        8.27       0.011
  YS02001590           JUNCTION      0.00   318.71     0  01:58           0        2.43      -0.047
  YS02001593           JUNCTION      0.00   318.37     0  01:49           0        2.43       0.008
  YS02001596           JUNCTION      0.00   318.23     0  02:07           0        2.43      -0.003
  YS02001600           JUNCTION      0.00   318.27     0  01:58           0        2.43       0.022
  YS02001601           JUNCTION   8339.22  8656.71     0  02:36        10.6          13       0.005
  YS02001602           JUNCTION      0.00   499.56     0  01:25           0        3.45       0.012
  YS02001605           JUNCTION      0.00   499.41     0  01:25           0        3.14       0.019
  YS02001607           JUNCTION      0.00   499.35     0  01:25           0        3.14       0.054
  YS02001610           JUNCTION      0.00   955.43     0  02:24           0        4.93       0.049
  YS02001613           JUNCTION      0.00   618.78     0  02:42           0        3.42       0.038
  YS02001616           JUNCTION      0.00   619.62     0  02:27           0        3.42       0.012
  YS02001619           JUNCTION   9635.15  9635.15     0  02:36        13.2        14.8      -0.003
  YS02001622           JUNCTION      0.00  1054.00     0  02:24           0        7.31      -0.001
  YS02001625           JUNCTION      0.00  1505.50     0  02:25           0        8.59       0.112
  YS02001629           JUNCTION      0.00  1138.95     0  02:26           0        5.78       0.011
  YS02001633           JUNCTION   6186.72  6186.72     0  02:36        7.98        11.4       0.028
  YS02001641           JUNCTION      0.00  1348.67     0  01:41           0        7.16       0.036
  YS02001644           JUNCTION   5513.84  7265.46     0  02:36        6.81        15.2       0.021
  YS02001647           JUNCTION      0.00  1688.26     0  01:41           0        8.27       0.007
  YS02001649           JUNCTION      0.00  3236.19     0  02:38           0          13       0.001
  YS02001652           JUNCTION      0.00  2429.20     0  02:40           0        5.61      -0.025
  YS02001655           JUNCTION      0.15  2731.44     0  02:38     0.00443        5.81       0.014
  YS02001658           JUNCTION      0.00  2783.65     0  02:39           0        5.84      -0.025
  YS02001661           JUNCTION      0.00  2783.68     0  02:39           0        5.84       0.006
  YS02001664           JUNCTION   5268.51  5268.51     0  02:36        6.51        6.51      -0.005
  YS02001745           JUNCTION   3170.84  3170.84     0  02:36        3.72        3.72       0.028
  YS02001748           JUNCTION      0.04  3116.97     0  02:36      0.0013        3.72      -0.057
  YS02001751           JUNCTION      0.01  2353.63     0  02:36    0.000317        3.61       0.027
  YS02001754           JUNCTION      0.26  2354.36     0  02:36     0.00749        3.62      -0.048
  YS02001757           JUNCTION      0.00  3761.42     0  02:34           0          20       0.033
  YS02001759           JUNCTION   4396.95  4396.95     0  02:36         5.3        7.69      -0.004
  YS02001762           JUNCTION      0.00   723.01     0  02:38           0        3.09       0.004
  YS02001765           JUNCTION      0.00   722.79     0  02:38           0        3.09       0.006
  YS02001767           JUNCTION      0.54   723.36     0  02:36      0.0154        3.09       0.004
  YS02001770           JUNCTION   6434.03  7156.21     0  02:36        7.83        8.57      -0.006
  YS02001774           JUNCTION      0.00   852.16     0  02:25           0        1.88       0.059
  YS02001779           JUNCTION      0.01   851.77     0  02:24    0.000144        1.84       0.001
  YS02001783           JUNCTION      0.00  1321.23     0  02:34           0        7.73       0.004
  YS02001784           JUNCTION      1.06  1322.53     0  02:33      0.0305        7.76       0.006
  YS02001786           JUNCTION      0.06  1322.59     0  02:36     0.00162        7.76       0.009
  YS02001788           JUNCTION      0.07  1322.62     0  02:36     0.00204        7.76       0.004
  YS02001790           JUNCTION      0.15  1328.87     0  02:38     0.00446        7.76       0.024
  YS02001791           JUNCTION      0.00  1382.44     0  02:38           0        7.76      -0.042
  YS02001793           JUNCTION      0.00  1387.55     0  02:38           0        7.76       0.003
  YS02001882           JUNCTION      0.00    31.89     0  01:17           0       0.015       4.489
  YS02001884           JUNCTION      0.00    65.91     0  01:15           0      0.0513       5.375
  YS02001887           JUNCTION   4566.52  4566.52     0  02:36        5.38        5.41       0.077
  YS02001890           JUNCTION      0.00  2052.03     0  02:37           0        4.61       0.113
  YS02001895           JUNCTION      0.00   518.07     0  02:19           0        2.59       0.084
  YS02001898           JUNCTION      0.00   518.44     0  02:16           0        2.59      -0.005
  YS02001901           JUNCTION      0.00   518.35     0  02:16           0        2.59       0.128
  YS02001904           JUNCTION      0.00   518.50     0  02:27           0         2.6       0.109
  YS02001907           JUNCTION      0.00  4669.96     0  02:38           0          12       0.150
  YS02001910           JUNCTION      0.00  1993.13     0  02:22           0        7.11       0.100
  YS02001915           JUNCTION   6062.18  7283.87     0  02:36        7.22        10.5       0.014
  YS02001918           JUNCTION      0.00  1681.95     0  02:39           0        3.59       0.002
  YS02001920           JUNCTION      2.87  1682.10     0  02:39      0.0827        3.59       0.028
  YS02001923           JUNCTION      0.04  1679.13     0  02:38     0.00109        3.51       0.000
  YS02001926           JUNCTION      0.05  1678.86     0  02:39      0.0015         3.5       0.004
  YS02001929           JUNCTION   3056.34  3056.34     0  02:36        3.89        3.89      -0.004
  YS02006553           JUNCTION      0.00  2160.33     0  02:39           0        5.35       0.219
  YS02006556           JUNCTION      0.00  2161.42     0  02:39           0        5.37       0.154
  YS02006558           JUNCTION   6550.62  6550.62     0  02:36        7.77        10.8       0.028
  YS02006561           JUNCTION      0.00  1321.20     0  02:36           0        7.73       0.000
  YS02163301           JUNCTION      0.00  1138.82     0  02:26           0        5.79       0.025
  YS02163601           JUNCTION      0.11  1347.39     0  01:41     0.00317        7.15       0.068
  YS02164001           JUNCTION      0.00  1347.59     0  01:41           0        7.15       0.035
  YSB1154              JUNCTION    531.62   531.62     0  01:28       0.915       0.915       0.159
  YSB1171              JUNCTION      0.00  1188.99     0  01:28           0        1.79       0.353
  YSB1174              JUNCTION    462.28   462.28     0  01:26       0.684       0.685       0.177
  YSB6556              JUNCTION      0.00   531.88     0  01:28           0       0.916       0.117
  CC-1                 OUTFALL       0.00  1024.50     0  00:01           0        6.36       0.000
  CC-2                 OUTFALL       0.00  1024.50     0  00:01           0         9.4       0.000
  JK-1                 OUTFALL       0.00  1500.00     0  02:16           0        2.71       0.000
  JK-2                 OUTFALL       0.00  1500.00     0  01:15           0        3.71       0.000
  WSC                  OUTFALL       0.00  1591.27     0  01:33           0        15.5       0.000
  CC-storage           STORAGE       0.00  3099.30     0  02:19           0        21.9      -0.147
  JK-storage           STORAGE       0.00  1404.32     0  02:32           0        7.91      -0.213
  XR-storage           STORAGE     200.00   200.00     0  00:00        5.76        6.36       0.001
  
  
  **********************
  Node Surcharge Summary
  **********************
  
  Surcharging occurs when water rises above the top of the highest conduit.
  ---------------------------------------------------------------------
                                               Max. Height   Min. Depth
                                   Hours       Above Crown    Below Rim
  Node                 Type      Surcharged         Meters       Meters
  ---------------------------------------------------------------------
  HS02004478           JUNCTION        0.73          0.721        0.219
  HS02004479           JUNCTION        0.88          0.953        0.097
  HS02004480           JUNCTION        0.93          1.038        0.062
  HS02004770           JUNCTION        0.83          0.720        0.000
  HS02004777           JUNCTION        0.84          0.780        0.000
  HS02004785           JUNCTION        0.77          0.790        0.000
  HS02004788           JUNCTION        0.75          0.720        0.000
  HS02004792           JUNCTION        0.90          0.900        0.000
  HS02004799           JUNCTION        1.03          1.060        0.000
  HS02004802           JUNCTION        0.93          1.128        0.082
  HS02004807           JUNCTION        0.90          1.220        0.000
  HS02004817           JUNCTION        1.71          1.740        0.000
  HS02004824           JUNCTION        0.75          1.310        0.000
  HS02004830           JUNCTION        0.71          1.330        0.000
  HS02004837           JUNCTION        0.66          1.340        0.000
  HS02004842           JUNCTION        0.83          1.520        0.000
  HS02004848           JUNCTION        0.64          1.295        0.075
  HS02004852           JUNCTION        0.67          1.336        0.084
  HS02004856           JUNCTION        0.65          1.300        0.000
  HS02004862           JUNCTION        0.70          1.300        0.000
  HS02004870           JUNCTION        0.72          1.400        0.000
  HS02004876           JUNCTION        0.83          1.560        0.000
  HS02004881           JUNCTION        0.81          1.450        0.000
  HS02004901           JUNCTION        0.84          0.720        0.000
  WS02004401           JUNCTION        1.93          1.660        0.000
  WS02004402           JUNCTION        1.96          1.740        0.000
  WS02004403           JUNCTION        1.97          1.996        0.034
  WS02004404           JUNCTION        2.10          2.231        0.549
  WS02004405           JUNCTION        2.08          2.159        0.641
  WS02004406           JUNCTION        2.05          2.450        0.000
  WS02004407           JUNCTION        0.03          0.181        2.159
  WS02004409           JUNCTION        1.43          0.589        1.771
  WS02004410           JUNCTION        1.23          0.620        1.920
  WS02004411           JUNCTION        1.16          0.513        2.017
  WS02004412           JUNCTION        1.05          0.276        2.034
  WS02004413           JUNCTION        1.74          0.738        1.462
  WS02006109           JUNCTION        2.47          1.820        0.000
  WS02006110           JUNCTION        2.31          1.850        0.000
  WS02006111           JUNCTION        1.71          1.870        0.000
  WS02006112           JUNCTION        2.35          1.680        0.000
  WS02006113           JUNCTION        1.73          1.884        0.046
  WS02006115           JUNCTION        1.87          2.250        0.000
  WS02006116           JUNCTION        1.88          2.290        0.000
  WS02006228           JUNCTION        2.47          2.200        0.000
  WS02006229           JUNCTION        1.21          1.070        0.000
  WS02006230           JUNCTION        2.14          1.570        0.000
  WS02006231           JUNCTION        2.23          1.511        0.019
  WS02006232           JUNCTION        2.43          1.480        0.000
  WS02006234           JUNCTION        2.21          1.240        0.000
  WS02006235           JUNCTION        2.26          1.290        0.000
  WS02006238           JUNCTION        2.36          1.430        0.000
  WS02006239           JUNCTION        2.29          1.290        0.000
  WS02006240           JUNCTION        2.32          1.390        0.000
  WS02006242           JUNCTION        2.39          0.820        0.000
  WS02006243           JUNCTION        2.32          0.770        0.000
  WS02006245           JUNCTION        2.31          0.850        0.000
  WS02006247           JUNCTION        2.33          0.760        0.000
  WS02006248           JUNCTION        2.30          0.380        0.000
  WS02006249           JUNCTION        2.32          0.390        0.000
  WS02006251           JUNCTION        2.25          1.180        0.000
  WS02006252           JUNCTION        2.66          1.100        0.000
  WS02006253           JUNCTION        2.26          2.280        0.200
  WS02006256           JUNCTION        6.91          2.050        0.000
  WS02006280           JUNCTION        1.06          0.780        0.000
  WS02006284           JUNCTION        0.95          0.800        0.000
  WS02006287           JUNCTION        0.84          0.815        0.075
  YS02001580           JUNCTION        1.66          0.327        0.123
  YS02001583           JUNCTION        1.67          0.339        0.161
  YS02001586           JUNCTION        1.78          0.510        0.000
  YS02001590           JUNCTION        1.86          0.750        0.000
  YS02001593           JUNCTION        1.85          0.690        0.150
  YS02001596           JUNCTION        1.95          0.943        0.127
  YS02001600           JUNCTION        2.05          1.190        0.000
  YS02001601           JUNCTION        2.24          1.440        0.000
  YS02001602           JUNCTION        2.18          1.270        0.000
  YS02001605           JUNCTION        2.15          1.180        0.000
  YS02001607           JUNCTION        1.81          0.646        0.034
  YS02001610           JUNCTION        1.83          0.680        0.000
  YS02001613           JUNCTION        1.80          0.673        0.027
  YS02001616           JUNCTION        1.77          0.610        0.000
  YS02001619           JUNCTION        1.75          0.610        0.000
  YS02001622           JUNCTION        1.75          0.602        0.018
  YS02001625           JUNCTION        1.91          0.780        0.000
  YS02001629           JUNCTION        1.65          0.470        0.000
  YS02001633           JUNCTION        1.93          1.060        0.000
  YS02001641           JUNCTION        1.86          0.970        0.130
  YS02001644           JUNCTION        1.83          0.920        0.000
  YS02001647           JUNCTION        1.45          0.803        0.097
  YS02001649           JUNCTION        1.54          1.050        0.000
  YS02001652           JUNCTION        1.38          1.124        0.006
  YS02001655           JUNCTION        1.19          1.200        0.000
  YS02001658           JUNCTION        0.98          1.300        0.000
  YS02001661           JUNCTION        0.56          1.390        0.000
  YS02001664           JUNCTION        0.38          1.310        0.000
  YS02001745           JUNCTION        0.37          1.350        0.000
  YS02001748           JUNCTION        0.84          1.190        0.000
  YS02001751           JUNCTION        1.09          1.200        0.000
  YS02001754           JUNCTION        1.23          1.134        0.016
  YS02001757           JUNCTION        1.56          1.210        0.000
  YS02001759           JUNCTION        1.49          1.210        0.000
  YS02001762           JUNCTION        1.46          1.150        0.000
  YS02001765           JUNCTION        1.43          1.100        0.000
  YS02001767           JUNCTION        1.40          1.030        0.000
  YS02001770           JUNCTION        1.38          0.920        0.000
  YS02001774           JUNCTION        1.46          1.042        0.008
  YS02001779           JUNCTION        1.26          0.680        0.000
  YS02001783           JUNCTION        1.54          0.683        0.917
  YS02001784           JUNCTION        1.51          0.515        0.975
  YS02001786           JUNCTION        1.33          0.190        1.240
  YS02001882           JUNCTION        1.45          0.830        0.000
  YS02001884           JUNCTION        1.47          0.870        0.000
  YS02001887           JUNCTION        1.53          0.950        0.000
  YS02001890           JUNCTION        1.55          0.760        0.000
  YS02001895           JUNCTION        1.43          0.630        0.120
  YS02001898           JUNCTION        1.42          0.552        0.188
  YS02001901           JUNCTION        1.51          0.683        0.187
  YS02001904           JUNCTION        1.49          0.641        0.209
  YS02001907           JUNCTION        1.80          0.950        0.000
  YS02001910           JUNCTION        1.58          1.065        0.035
  YS02001915           JUNCTION        1.45          1.000        0.000
  YS02001918           JUNCTION        1.31          0.810        0.000
  YS02001920           JUNCTION        1.33          1.031        0.109
  YS02001923           JUNCTION        0.62          0.709        0.111
  YS02001926           JUNCTION        0.67          0.882        0.018
  YS02001929           JUNCTION        0.47          0.780        0.000
  YS02006553           JUNCTION        1.81          1.190        0.000
  YS02006556           JUNCTION        1.71          1.295        0.055
  YS02006558           JUNCTION        1.68          1.400        0.000
  YS02006561           JUNCTION        1.27          0.455        0.695
  YS02163301           JUNCTION        1.91          0.957        0.073
  YS02163601           JUNCTION        1.95          1.079        0.001
  YS02164001           JUNCTION        1.87          1.005        0.095
  YSB1154              JUNCTION        1.23          1.359        0.041
  YSB1171              JUNCTION        1.23          1.100        0.000
  YSB1174              JUNCTION        1.09          1.187        0.063
  YSB6556              JUNCTION        0.99          1.100        0.000
  
  
  *********************
  Node Flooding Summary
  *********************
  
  Flooding refers to all water that overflows a node, whether it ponds or not.
  --------------------------------------------------------------------------
                                                             Total   Maximum
                                 Maximum   Time of Max       Flood    Ponded
                        Hours       Rate    Occurrence      Volume     Depth
  Node                 Flooded       LPS   days hr:min    10^6 ltr    Meters
  --------------------------------------------------------------------------
  HS02004770              0.52   1707.63      0  01:27       1.460     0.000
  HS02004777              0.01    103.72      0  01:22       0.001     0.000
  HS02004785              0.01    362.73      0  01:23       0.001     0.000
  HS02004788              0.01    733.56      0  01:23       0.011     0.000
  HS02004792              0.56   2317.09      0  01:28       2.436     0.000
  HS02004799              0.25    360.13      0  01:25       0.144     0.000
  HS02004807              0.20    497.00      0  01:27       0.235     0.000
  HS02004817              0.01     23.71      0  01:23       0.000     0.000
  HS02004824              0.13    244.71      0  01:23       0.049     0.000
  HS02004830              0.01    173.30      0  01:23       0.001     0.000
  HS02004837              0.01    262.47      0  01:23       0.000     0.000
  HS02004842              0.13    133.90      0  01:29       0.041     0.000
  HS02004856              0.01     84.70      0  01:25       0.000     0.000
  HS02004862              0.11    412.91      0  01:24       0.063     0.000
  HS02004870              0.01    440.32      0  01:24       0.002     0.000
  HS02004876              0.01    712.84      0  01:25       0.003     0.000
  HS02004881              0.01   1110.47      0  01:25       0.007     0.000
  HS02004901              0.65    686.19      0  01:29       1.059     0.000
  WS02004401              0.01    101.10      0  01:22       0.000     0.000
  WS02004402              0.01     51.40      0  01:22       0.000     0.000
  WS02004406              0.01    164.29      0  01:22       0.000     0.000
  WS02006109              0.63    380.11      0  01:26       0.427     0.000
  WS02006110              0.01     63.77      0  01:22       0.000     0.000
  WS02006111              0.01    195.36      0  01:22       0.000     0.000
  WS02006112              0.01    270.13      0  01:22       0.002     0.000
  WS02006115              0.01    277.48      0  01:22       0.000     0.000
  WS02006116              0.01     53.32      0  01:22       0.000     0.000
  WS02006228              0.01      7.83      0  01:22       0.000     0.000
  WS02006229              0.01     20.54      0  01:22       0.000     0.000
  WS02006230              0.96    576.48      0  01:25       1.402     0.000
  WS02006232              0.23     72.97      0  01:19       0.000     0.000
  WS02006234              1.04    128.54      0  02:19       0.213     0.000
  WS02006235              0.01     42.44      0  01:20       0.000     0.000
  WS02006238              0.01    279.10      0  01:20       0.000     0.000
  WS02006239              0.01    200.65      0  01:20       0.000     0.000
  WS02006240              0.01    277.27      0  01:20       0.000     0.000
  WS02006242              1.19    470.55      0  01:20       0.505     0.000
  WS02006243              0.01    407.02      0  01:20       0.001     0.000
  WS02006245              0.01    138.13      0  01:21       0.000     0.000
  WS02006247              0.01    291.35      0  01:21       0.000     0.000
  WS02006248              1.78    395.18      0  01:21       1.707     0.000
  WS02006249              2.27   1342.53      0  01:26       6.423     0.000
  WS02006251              0.01    152.04      0  01:25       0.001     0.000
  WS02006252              0.85    934.86      0  01:27       1.449     0.000
  WS02006256              0.95    444.47      0  02:16       0.977     0.000
  WS02006280              0.01      6.00      0  01:22       0.000     0.000
  WS02006284              0.01    398.71      0  01:22       0.000     0.000
  YS02001586              1.49   5293.21      0  02:36       5.831     0.000
  YS02001590              0.01      0.30      0  02:02       0.000     0.000
  YS02001600              0.01      1.21      0  01:25       0.000     0.000
  YS02001601              1.72   8256.90      0  02:36       9.591     0.000
  YS02001602              1.44     62.15      0  02:02       0.309     0.000
  YS02001605              0.01      0.12      0  01:41       0.000     0.000
  YS02001610              1.37    955.16      0  02:24       3.295     0.000
  YS02001616              0.17      3.11      0  02:17       0.000     0.000
  YS02001619              0.60   7963.29      0  02:36       5.706     0.000
  YS02001625              1.32   1505.27      0  02:25       5.152     0.000
  YS02001629              0.63    686.78      0  02:42       1.070     0.000
  YS02001633              0.33   4142.22      0  02:36       1.904     0.000
  YS02001644              0.88   7264.12      0  02:36       8.117     0.000
  YS02001649              0.33   2389.49      0  02:38       1.769     0.000
  YS02001655              0.21    303.19      0  02:39       0.200     0.000
  YS02001658              0.17     52.11      0  02:39       0.031     0.000
  YS02001661              0.01      0.55      0  02:27       0.000     0.000
  YS02001664              0.17   2484.14      0  02:36       0.676     0.000
  YS02001745              0.01     64.32      0  02:36       0.001     0.000
  YS02001748              0.08    763.29      0  02:36       0.115     0.000
  YS02001757              0.09     84.93      0  02:37       0.013     0.000
  YS02001759              0.17   2266.96      0  02:36       0.628     0.000
  YS02001762              0.04      1.30      0  02:38       0.000     0.000
  YS02001765              0.01      0.80      0  02:27       0.000     0.000
  YS02001767              0.01      0.76      0  02:27       0.000     0.000
  YS02001770              0.47   6303.46      0  02:36       4.331     0.000
  YS02001779              0.80    851.48      0  02:24       1.816     0.000
  YS02001882              0.01      0.69      0  02:27       0.000     0.000
  YS02001884              0.01      0.71      0  02:39       0.000     0.000
  YS02001887              0.20   2513.38      0  02:36       0.760     0.000
  YS02001890              0.76   1536.77      0  02:39       2.014     0.000
  YS02001907              1.24   4669.14      0  02:36       8.894     0.000
  YS02001915              0.45   5289.94      0  02:36       3.349     0.000
  YS02001918              0.27    459.99      0  02:39       0.342     0.000
  YS02001929              0.17   1377.57      0  02:36       0.384     0.000
  YS02006553              0.01      0.86      0  02:27       0.000     0.000
  YS02006558              0.16   3068.45      0  02:36       0.800     0.000
  YSB1171                 0.40   1188.19      0  01:28       0.954     0.000
  YSB6556                 0.01     11.13      0  01:23       0.000     0.000
  
  
  **********************
  Storage Volume Summary
  **********************
  
  --------------------------------------------------------------------------------------------------
                         Average     Avg  Evap Exfil       Maximum     Max    Time of Max    Maximum
                          Volume    Pcnt  Pcnt  Pcnt        Volume    Pcnt     Occurrence    Outflow
  Storage Unit           1000 m3    Full  Loss  Loss       1000 m3    Full    days hr:min        LPS
  --------------------------------------------------------------------------------------------------
  CC-storage               2.427      38     0     0         5.240      82       0  02:44    2549.00
  JK-storage               0.076      26     0     0         0.213      73       0  02:25    2300.00
  XR-storage               0.931      65     0     0         1.111      77       0  08:00     380.00
  
  
  ***********************
  Outfall Loading Summary
  ***********************
  
  -----------------------------------------------------------
                         Flow       Avg       Max       Total
                         Freq      Flow      Flow      Volume
  Outfall Node           Pcnt       LPS       LPS    10^6 ltr
  -----------------------------------------------------------
  CC-1                  46.64    926.94   1024.50       6.365
  CC-2                  57.75   1003.89   1024.50       9.402
  JK-1                  10.80   1291.29   1500.00       2.714
  JK-2                  12.28   1493.00   1500.00       3.714
  WSC                   99.95    687.78   1591.27      15.469
  -----------------------------------------------------------
  System                45.48   5402.90   1591.27      37.664
  
  
  ********************
  Link Flow Summary
  ********************
  
  -----------------------------------------------------------------------------
                                 Maximum  Time of Max   Maximum    Max/    Max/
                                  |Flow|   Occurrence   |Veloc|    Full    Full
  Link                 Type          LPS  days hr:min     m/sec    Flow   Depth
  -----------------------------------------------------------------------------
  1                    CONDUIT   1591.27     0  01:33      3.75    0.55    0.53
  HS02004478WS02006287 CONDUIT   2311.31     0  01:26      2.77    0.65    1.00
  HS02004479HS02004480 CONDUIT    611.45     0  01:23      0.87    0.59    1.00
  HS02004480HS02004478 CONDUIT   2242.98     0  01:23      3.20    9.45    1.00
  HS02004770HS02004777 CONDUIT    982.87     0  01:22      1.40    1.80    1.00
  HS02004777HS02004785 CONDUIT    982.01     0  01:22      1.51    1.21    1.00
  HS02004785HS02004788 CONDUIT    825.36     0  01:23      1.33    6.22    1.00
  HS02004788HS02004792 CONDUIT    881.31     0  01:27      1.39    0.58    1.00
  HS02004792HS02004799 CONDUIT   1553.62     0  02:01      2.22    0.95    1.00
  HS02004799HS02004480 CONDUIT   1688.25     0  01:23      2.41    2.13    1.00
  HS02004802HS02004478 CONDUIT   1233.65     0  01:31      1.76    1.09    1.00
  HS02004807HS02004802 CONDUIT   1233.74     0  01:31      1.76    2.36    1.00
  HS02004817HS02004807 CONDUIT   1197.03     0  01:34      1.71    0.71    1.00
  HS02004817HS02004824 CONDUIT   1196.44     0  01:32      1.71    0.54    1.00
  HS02004824HS02004830 CONDUIT    868.80     0  01:23      1.24    1.14    1.00
  HS02004830HS02004837 CONDUIT    880.46     0  01:23      1.39    0.88    1.00
  HS02004837HS02004842 CONDUIT   1101.13     0  01:24      1.57    0.66    1.00
  HS02004842HS02004848 CONDUIT   1119.41     0  01:24      1.77    0.65    1.00
  HS02004848HS02004852 CONDUIT   1514.37     0  01:24      2.33    1.71    1.00
  HS02004852HS02004856 CONDUIT   1412.73     0  01:24      2.02    1.62    1.00
  HS02004856HS02004862 CONDUIT   1534.41     0  01:24      2.26    1.53    1.00
  HS02004862HS02004870 CONDUIT   1735.42     0  01:24      2.63    1.87    1.00
  HS02004870HS02004876 CONDUIT   1694.71     0  01:24      2.43    1.12    1.00
  HS02004876HS02004881 CONDUIT   1847.00     0  01:25      2.77   19.64    1.00
  HS02004881HS02006253 CONDUIT   1660.50     0  01:27      2.37    0.32    1.00
  HS02004901HS02004770 CONDUIT    265.79     0  01:54      0.38    1.00    1.00
  WS02001211WS02001212 CONDUIT    306.90     0  01:31      0.54    0.23    0.76
  WS02001212WS02001213 CONDUIT    399.78     0  01:30      1.04    0.62    0.67
  WS02001213WS02003059 CONDUIT    331.66     0  01:26      0.48    0.55    0.95
  WS02003059WS02003060 CONDUIT    444.73     0  01:25      0.79    0.29    0.85
  WS02003060WS02003069 CONDUIT   1611.29     0  01:31      2.32    0.63    0.63
  WS02003066WSF200     CONDUIT   1425.90     0  01:26      3.75    0.24    0.40
  WS02003067WS02003066 CONDUIT   1416.51     0  01:26      2.24    0.45    0.58
  WS02003069WS02003072 CONDUIT   1595.12     0  01:32      1.93    0.77    0.69
  WS02003072WS02003073 CONDUIT   1595.14     0  01:32      2.10    3.45    0.64
  WS02004138WS02004139 CONDUIT    190.94     0  00:29      2.16    0.04    0.45
  WS02004139WS02001211 CONDUIT    343.56     0  01:29      0.54    0.43    0.65
  WS02004401WS02004402 CONDUIT   1396.45     0  01:25      1.78    1.68    1.00
  WS02004402WS02004403 CONDUIT   1394.61     0  01:25      1.78    2.00    1.00
  WS02004403WS02004404 CONDUIT   1392.80     0  01:24      1.77    1.01    1.00
  WS02004404WS02004405 CONDUIT   1393.77     0  01:24      1.77   13.66    1.00
  WS02004405WS02004406 CONDUIT   1394.48     0  01:24      1.78    2.75    1.00
  WS02004406WS02004407 CONDUIT   1394.55     0  01:24      2.12    0.62    1.00
  WS02004407WS02004409 CONDUIT   1370.24     0  01:26      2.30    0.49    1.00
  WS02004409WS02004410 CONDUIT   1371.88     0  01:26      1.81    1.77    1.00
  WS02004410WS02004411 CONDUIT   1373.27     0  01:26      1.79    1.88    1.00
  WS02004411WS02004412 CONDUIT   1374.50     0  01:26      1.82    1.95    1.00
  WS02004412WS02004413 CONDUIT   1376.93     0  01:26      1.75    0.92    1.00
  WS02004413WS02003067 CONDUIT   1377.59     0  01:26      2.11    0.59    0.78
  WS02006109WS02006110 CONDUIT   1218.03     0  01:22      2.42    2.34    1.00
  WS02006110WS02006113 CONDUIT   1218.16     0  01:22      2.43    1.11    1.00
  WS02006111WS02006112 CONDUIT   1121.15     0  02:00      2.25    0.53    1.00
  WS02006112WS02006115 CONDUIT   1399.34     0  01:25      1.78    0.83    1.00
  WS02006113WS02006111 CONDUIT   1222.88     0  01:22      2.75    1.47    1.00
  WS02006115WS02006116 CONDUIT   1398.71     0  01:25      1.78    1.80    1.00
  WS02006116WS02004401 CONDUIT   1397.73     0  01:25      1.78    1.93    1.00
  WS02006228WS02006109 CONDUIT   1290.96     0  01:26      2.57    5.64    1.00
  WS02006229WS02006228 CONDUIT   1291.76     0  01:26      2.57    4.28    1.00
  WS02006230WS02006229 CONDUIT   1018.86     0  01:25      2.65   22.67    1.00
  WS02006231WS02006230 CONDUIT    524.78     0  03:30      1.36    7.96    1.00
  WS02006232WS02006231 CONDUIT    524.26     0  03:30      1.36    1.10    1.00
  WS02006234WS02006232 CONDUIT    521.50     0  03:29      1.42    1.05    1.00
  WS02006235WS02006234 CONDUIT    517.58     0  03:29      1.34    5.46    1.00
  WS02006238WS02006235 CONDUIT    436.23     0  03:34      1.45    0.97    1.00
  WS02006239WS02006238 CONDUIT    429.84     0  03:30      1.12    1.38    1.00
  WS02006240WS02006239 CONDUIT    428.61     0  03:31      1.16    1.35    1.00
  WS02006242WS02006240 CONDUIT    427.53     0  03:27      1.11    1.70    1.00
  WS02006243WS02006242 CONDUIT    427.62     0  03:27      1.26    0.91    1.00
  WS02006245WS02006243 CONDUIT    428.32     0  03:27      1.29    1.27    1.00
  WS02006247WS02006245 CONDUIT    429.47     0  03:31      1.30    3.41    1.00
  WS02006248WS02006247 CONDUIT    431.22     0  03:31      1.31    0.94    1.00
  WS02006249WS02006248 CONDUIT    450.20     0  01:20      1.41    2.47    1.00
  WS02006251WS02006249 CONDUIT   1380.80     0  01:27      3.59    3.98    1.00
  WS02006252WS02006251 CONDUIT    612.38     0  01:14     27.43    2.25    1.00
  WS02006253WS02006251 CONDUIT   1714.83     0  01:27      4.46    5.14    1.00
  WS02006256WS02006235 CONDUIT    288.93     0  00:00      4.23    3.06    1.00
  WS02006280WS02006229 CONDUIT   2311.64     0  01:26      4.54    0.49    1.00
  WS02006284WS02006280 CONDUIT   2309.65     0  01:26      3.06    0.97    1.00
  WS02006287WS02006284 CONDUIT   2310.62     0  01:26      2.94    1.07    1.00
  WSF200WS02003060     CONDUIT   1451.35     0  01:25      3.20    0.32    0.53
  YS02001580YS02001583 CONDUIT     58.46     0  01:25      0.46    0.23    1.00
  YS02001583YS02001586 CONDUIT     84.51     0  01:25      0.35    0.13    1.00
  YS02001586YS02001590 CONDUIT    318.71     0  01:58      1.30    0.56    1.00
  YS02001590YS02001593 CONDUIT    318.37     0  01:49      1.18    2.00    1.00
  YS02001593YS02001596 CONDUIT    318.23     0  02:07      1.88    0.50    1.00
  YS02001596YS02001600 CONDUIT    318.27     0  01:58      1.38    0.62    1.00
  YS02001600YS02001601 CONDUIT    318.10     0  02:07      1.13    0.55    1.00
  YS02001601YS02001602 CONDUIT    499.56     0  01:25      1.77    1.80    1.00
  YS02001602YS02001605 CONDUIT    499.41     0  01:25      1.77   10.57    1.00
  YS02001605YS02001607 CONDUIT    499.35     0  01:25      1.77    2.74    1.00
  YS02001607YS02001610 CONDUIT    498.37     0  01:25      0.68    0.47    1.00
  YS02001610YS02001613 CONDUIT    619.27     0  02:24      0.79    0.71    1.00
  YS02001613YS02001616 CONDUIT    618.78     0  02:42      0.79    0.53    1.00
  YS02001616YS02001619 CONDUIT    619.62     0  02:27      0.79    1.08    1.00
  YS02001619YS02001622 CONDUIT   1054.00     0  02:24      1.50    1.55    1.00
  YS02001622YS02001625 CONDUIT   1053.72     0  02:25      1.34    0.56    1.00
  YS02001625YS02001629 CONDUIT    946.84     0  01:41      1.21    0.45    1.00
  YS02001629YS02163301 CONDUIT   1138.95     0  02:26      1.45    1.40    1.00
  YS02001633YS02163601 CONDUIT   1347.28     0  01:41      1.72    1.41    1.00
  YS02001641YS02001644 CONDUIT   1348.11     0  01:41      1.72    4.36    1.00
  YS02001644YS02001647 CONDUIT   1688.26     0  01:41      2.17    0.99    1.00
  YS02001647YS02001649 CONDUIT   1698.46     0  01:41      2.30    0.90    1.00
  YS02001649YS02001757 CONDUIT   1962.43     0  01:41      2.52    1.19    1.00
  YS02001652YS02001649 CONDUIT   2429.23     0  02:40      3.09    1.20    1.00
  YS02001655YS02001652 CONDUIT   2429.20     0  02:40      3.09    1.18    1.00
  YS02001658YS02001655 CONDUIT   2731.29     0  02:38      3.48    1.16    1.00
  YS02001661YS02001658 CONDUIT   2783.65     0  02:39      3.54    1.09    1.00
  YS02001664YS02001661 CONDUIT   2783.68     0  02:39      3.54    0.87    1.00
  YS02001745YS02001748 CONDUIT   3116.93     0  02:36      3.97    1.20    1.00
  YS02001748YS02001751 CONDUIT   2353.62     0  02:36      3.00    1.19    1.00
  YS02001751YS02001754 CONDUIT   2354.10     0  02:36      3.00    1.13    1.00
  YS02001754YS02001757 CONDUIT   2353.87     0  02:36      3.00    0.95    1.00
  YS02001757CaochengTiaoxuchi CONDUIT   3099.30     0  02:19      4.03    1.34    1.00
  YS02001759YS02001757 CONDUIT   1606.39     0  02:39      2.05    1.14    1.00
  YS02001762YS02001759 CONDUIT    723.01     0  02:38      0.92    0.83    1.00
  YS02001765YS02001762 CONDUIT    722.79     0  02:38      0.92    0.68    1.00
  YS02001767YS02001765 CONDUIT    722.82     0  02:36      0.92    0.91    1.00
  YS02001770YS02001767 CONDUIT    723.07     0  02:38      0.92    2.86    1.00
  YS02001774YS02001770 CONDUIT    852.16     0  02:25      1.09    0.54    1.00
  YS02001779YS02001774 CONDUIT    851.77     0  02:24      1.08    0.43    1.00
  YS02001783YS02001784 CONDUIT   1321.47     0  02:33      2.63    1.82    1.00
  YS02001784YS02001785 CONDUIT   1322.53     0  02:36      2.63    3.08    1.00
  YS02001786YS02001788 CONDUIT   1322.55     0  02:36      2.74    2.55    0.93
  YS02001788YS02001790 CONDUIT   1328.72     0  02:38      2.90    0.98    0.88
  YS02001790YS02001791 CONDUIT   1382.44     0  02:38      3.56    1.50    0.74
  YS02001791YS02001793 CONDUIT   1387.55     0  02:38      6.96    0.60    0.50
  YS02001793JiankangQianchi CONDUIT   1404.32     0  02:32      2.76    0.11    0.68
  YS02001882YS02001884 CONDUIT     31.89     0  01:17      0.30    0.04    1.00
  YS02001884YS02001887 CONDUIT     67.96     0  03:04      0.24    0.09    1.00
  YS02001887YS02001890 CONDUIT   2052.03     0  02:37      2.61    3.51    1.00
  YS02001890YS02001895 CONDUIT    518.07     0  02:19      0.66    0.24    1.00
  YS02001895YS02001898 CONDUIT    518.44     0  02:16      0.66    0.90    1.00
  YS02001898YS02001901 CONDUIT    518.35     0  02:16      0.66    0.33    1.00
  YS02001901YS02001904 CONDUIT    518.50     0  02:27      0.66    0.80    1.00
  YS02001904YS02001907 CONDUIT    519.32     0  02:27      0.66    0.18    1.00
  YS02001907YS02006553 CONDUIT   2160.75     0  02:39      2.40    2.54    1.00
  YS02001910YS02001907 CONDUIT   1993.06     0  02:25      2.54    1.12    1.00
  YS02001915YS02001910 CONDUIT   1993.13     0  02:22      2.54    0.99    1.00
  YS02001918YS02001915 CONDUIT   1221.69     0  02:41      1.56    0.67    1.00
  YS02001920YS02001918 CONDUIT   1681.95     0  02:39      2.14    1.63    1.00
  YS02001923YS02001920 CONDUIT   1679.23     0  02:39      2.14    0.75    1.00
  YS02001926YS02001923 CONDUIT   1679.09     0  02:38      2.14    2.40    1.00
  YS02001929YS02001926 CONDUIT   1678.80     0  02:39      2.14    0.80    1.00
  YS02006553YS02006556 CONDUIT   2160.33     0  02:39      2.75    1.85    1.00
  YS02006556YS02006558 CONDUIT   2161.42     0  02:39      2.75    1.71    1.00
  YS02006558YS02006561 CONDUIT   1321.20     0  02:36      4.67    2.92    1.00
  YS02006561YS02001783 CONDUIT   1321.23     0  02:34      2.63    0.68    1.00
  YS02163301YS02001633 CONDUIT   1138.82     0  02:26      1.45    1.07    1.00
  YS02163601YS02164001 CONDUIT   1347.59     0  01:41      1.72    1.19    1.00
  YS02164001YS02001641 CONDUIT   1348.67     0  01:41      1.72    1.84    1.00
  YSB1154YSB6556       CONDUIT    531.88     0  01:28      1.38    0.96    1.00
  YSB1171HS02004479    CONDUIT    612.29     0  01:23      1.22    0.41    1.00
  YSB1174YSB1171       CONDUIT    462.49     0  01:26      1.20    0.71    1.00
  YSB6556YSB1171       CONDUIT    532.37     0  01:28      1.38    0.55    1.00
  CC-R1                PUMP      1024.50     0  00:01              1.50
  CC-R2                PUMP      1024.50     0  00:01              1.50
  CC-S1                PUMP       300.00     0  01:07              1.50
  CC-S2                PUMP       300.00     0  00:01              1.50
  JK-R1                PUMP      1500.00     0  02:16              1.50
  JK-R2                PUMP      1500.00     0  01:15              1.50
  JK-S                 PUMP       450.00     0  00:11              1.50
  XR-1                 PUMP        95.00     0  00:00              1.00
  XR-2                 PUMP        95.00     0  00:00              1.00
  XR-3                 PUMP        95.00     0  00:00              1.00
  XR-4                 PUMP        95.00     0  00:00              1.00
  
  
  ***************************
  Flow Classification Summary
  ***************************
  
  -------------------------------------------------------------------------------------
                      Adjusted    ---------- Fraction of Time in Flow Class ---------- 
                       /Actual         Up    Down  Sub   Sup   Up    Down  Norm  Inlet 
  Conduit               Length    Dry  Dry   Dry   Crit  Crit  Crit  Crit  Ltd   Ctrl  
  -------------------------------------------------------------------------------------
  1                       1.00   0.00  0.00  0.00  0.00  1.00  0.00  0.00  0.40  0.00
  HS02004478WS02006287    1.00   0.12  0.00  0.00  0.61  0.26  0.00  0.00  0.58  0.00
  HS02004479HS02004480    1.00   0.08  0.00  0.00  0.92  0.00  0.00  0.00  0.10  0.00
  HS02004480HS02004478    1.00   0.11  0.00  0.00  0.51  0.00  0.00  0.38  0.00  0.00
  HS02004770HS02004777    1.00   0.00  0.11  0.00  0.89  0.00  0.00  0.00  0.02  0.00
  HS02004777HS02004785    1.00   0.00  0.00  0.00  1.00  0.00  0.00  0.00  0.10  0.00
  HS02004785HS02004788    1.00   0.00  0.00  0.00  1.00  0.00  0.00  0.00  0.00  0.00
  HS02004788HS02004792    1.00   0.00  0.00  0.00  0.96  0.04  0.00  0.00  0.87  0.00
  HS02004792HS02004799    1.00   0.00  0.00  0.00  0.95  0.05  0.00  0.00  0.80  0.00
  HS02004799HS02004480    1.00   0.01  0.07  0.00  0.88  0.00  0.05  0.00  0.00  0.00
  HS02004802HS02004478    1.00   0.11  0.00  0.00  0.88  0.00  0.00  0.00  0.02  0.00
  HS02004807HS02004802    1.00   0.11  0.00  0.00  0.88  0.00  0.00  0.01  0.00  0.00
  HS02004817HS02004807    1.00   0.00  0.11  0.00  0.89  0.00  0.00  0.00  0.01  0.00
  HS02004817HS02004824    1.00   0.00  0.00  0.00  1.00  0.00  0.00  0.00  0.77  0.00
  HS02004824HS02004830    1.00   0.00  0.00  0.00  1.00  0.00  0.00  0.00  0.00  0.00
  HS02004830HS02004837    1.00   0.00  0.00  0.00  0.99  0.01  0.00  0.00  0.83  0.00
  HS02004837HS02004842    1.00   0.00  0.00  0.00  0.98  0.02  0.00  0.00  0.11  0.00
  HS02004842HS02004848    1.00   0.00  0.11  0.00  0.89  0.00  0.00  0.00  0.56  0.00
  HS02004848HS02004852    1.00   0.11  0.00  0.00  0.89  0.00  0.00  0.00  0.70  0.00
  HS02004852HS02004856    1.00   0.11  0.00  0.00  0.88  0.00  0.00  0.00  0.64  0.00
  HS02004856HS02004862    1.00   0.00  0.12  0.00  0.88  0.00  0.00  0.00  0.72  0.00
  HS02004862HS02004870    1.00   0.00  0.00  0.00  1.00  0.00  0.00  0.00  0.02  0.00
  HS02004870HS02004876    1.00   0.02  0.00  0.00  0.97  0.01  0.00  0.00  0.83  0.00
  HS02004876HS02004881    1.00   0.06  0.00  0.00  0.73  0.21  0.00  0.00  0.00  0.00
  HS02004881HS02006253    1.00   0.03  0.05  0.00  0.51  0.02  0.00  0.38  0.19  0.00
  HS02004901HS02004770    1.00   0.11  0.00  0.00  0.89  0.00  0.00  0.00  0.00  0.00
  WS02001211WS02001212    1.00   0.00  0.07  0.00  0.93  0.00  0.00  0.00  0.00  0.00
  WS02001212WS02001213    1.00   0.07  0.00  0.00  0.53  0.00  0.41  0.00  0.00  0.00
  WS02001213WS02003059    1.00   0.00  0.03  0.00  0.97  0.00  0.00  0.00  0.00  0.00
  WS02003059WS02003060    1.00   0.00  0.00  0.00  0.99  0.01  0.00  0.00  0.03  0.00
  WS02003060WS02003069    1.00   0.00  0.00  0.00  0.97  0.03  0.00  0.00  0.48  0.00
  WS02003066WSF200        1.00   0.11  0.00  0.00  0.00  0.89  0.00  0.00  0.58  0.00
  WS02003067WS02003066    1.00   0.10  0.01  0.00  0.89  0.00  0.00  0.00  0.00  0.00
[...]
  WSF200WS02003060        1.00   0.00  0.11  0.00  0.39  0.50  0.00  0.00  0.55  0.00
  YS02001580YS02001583    1.00   0.17  0.30  0.00  0.52  0.00  0.00  0.00  0.60  0.00
  YS02001583YS02001586    1.00   0.27  0.15  0.00  0.57  0.00  0.00  0.00  0.60  0.00
  YS02001586YS02001590    1.00   0.11  0.00  0.00  0.68  0.02  0.00  0.19  0.28  0.00
  YS02001590YS02001593    1.00   0.11  0.00  0.00  0.37  0.00  0.52  0.00  0.00  0.00
  YS02001593YS02001596    1.00   0.11  0.00  0.00  0.39  0.01  0.00  0.49  0.01  0.00
  YS02001596YS02001600    1.00   0.11  0.00  0.00  0.43  0.02  0.00  0.43  0.02  0.00
  YS02001600YS02001601    1.00   0.11  0.00  0.00  0.89  0.00  0.00  0.00  0.54  0.00
  YS02001601YS02001602    1.00   0.11  0.00  0.00  0.89  0.00  0.00  0.00  0.00  0.00
  YS02001602YS02001605    1.00   0.11  0.00  0.00  0.89  0.00  0.00  0.00  0.00  0.00
  YS02001605YS02001607    1.00   0.11  0.00  0.00  0.89  0.00  0.00  0.00  0.00  0.00
  YS02001607YS02001610    1.00   0.11  0.00  0.00  0.89  0.00  0.00  0.00  0.00  0.00
  YS02001610YS02001613    1.00   0.11  0.00  0.00  0.89  0.00  0.00  0.00  0.00  0.00
  YS02001613YS02001616    1.00   0.11  0.00  0.00  0.89  0.00  0.00  0.00  0.00  0.00
  YS02001616YS02001619    1.00   0.11  0.00  0.00  0.89  0.00  0.00  0.00  0.00  0.00
  YS02001619YS02001622    1.00   0.11  0.00  0.00  0.89  0.00  0.00  0.00  0.29  0.00
  YS02001622YS02001625    1.00   0.11  0.00  0.00  0.89  0.00  0.00  0.00  0.01  0.00
  YS02001625YS02001629    1.00   0.11  0.01  0.00  0.41  0.00  0.47  0.00  0.00  0.00
  YS02001629YS02163301    1.00   0.11  0.00  0.00  0.88  0.00  0.00  0.00  0.00  0.00
  YS02001633YS02163601    1.00   0.00  0.03  0.00  0.97  0.00  0.00  0.00  0.13  0.00
  YS02001641YS02001644    1.00   0.00  0.02  0.00  0.98  0.00  0.00  0.00  0.00  0.00
  YS02001644YS02001647    1.00   0.00  0.12  0.00  0.88  0.00  0.00  0.00  0.00  0.00
  YS02001647YS02001649    1.00   0.00  0.12  0.00  0.61  0.27  0.00  0.00  0.53  0.00
  YS02001649YS02001757    1.00   0.00  0.00  0.00  0.72  0.28  0.00  0.00  0.45  0.00
  YS02001652YS02001649    1.00   0.00  0.00  0.00  0.99  0.01  0.00  0.00  0.67  0.00
  YS02001655YS02001652    1.00   0.00  0.00  0.00  0.44  0.01  0.00  0.55  0.04  0.00
  YS02001658YS02001655    1.00   0.00  0.11  0.00  0.67  0.22  0.00  0.00  0.61  0.00
  YS02001661YS02001658    1.00   0.11  0.00  0.00  0.51  0.38  0.00  0.00  0.62  0.00
  YS02001664YS02001661    1.00   0.11  0.00  0.00  0.73  0.16  0.00  0.00  0.77  0.00
  YS02001745YS02001748    1.00   0.00  0.00  0.00  0.27  0.00  0.00  0.72  0.04  0.00
  YS02001748YS02001751    1.00   0.00  0.00  0.00  0.87  0.13  0.00  0.00  0.71  0.00
  YS02001751YS02001754    1.00   0.00  0.00  0.00  0.39  0.01  0.00  0.60  0.03  0.00
  YS02001754YS02001757    1.00   0.00  0.00  0.00  1.00  0.00  0.00  0.00  0.73  0.00
  YS02001757CaochengTiaoxuchi    1.00   0.00  0.00  0.00  0.89  0.11  0.00  0.00  0.74  0.00
  YS02001759YS02001757    1.00   0.00  0.00  0.00  0.99  0.00  0.00  0.00  0.56  0.00
  YS02001762YS02001759    1.00   0.00  0.00  0.00  1.00  0.00  0.00  0.00  0.03  0.00
  YS02001765YS02001762    1.00   0.00  0.00  0.00  1.00  0.00  0.00  0.00  0.67  0.00
  YS02001767YS02001765    1.00   0.00  0.00  0.00  1.00  0.00  0.00  0.00  0.00  0.00
  YS02001770YS02001767    1.00   0.00  0.00  0.00  1.00  0.00  0.00  0.00  0.00  0.00
  YS02001774YS02001770    1.00   0.00  0.11  0.00  0.76  0.00  0.13  0.00  0.01  0.00
  YS02001779YS02001774    1.00   0.00  0.00  0.00  1.00  0.00  0.00  0.00  0.70  0.00
  YS02001783YS02001784    1.00   0.00  0.12  0.00  0.88  0.00  0.00  0.00  0.55  0.00
  YS02001784YS02001785    1.00   0.00  0.00  0.00  1.00  0.00  0.00  0.00  0.13  0.00
  YS02001786YS02001788    1.00   0.00  0.00  0.00  0.73  0.27  0.00  0.00  0.00  0.00
  YS02001788YS02001790    1.00   0.00  0.00  0.00  0.25  0.75  0.00  0.00  0.74  0.00
  YS02001790YS02001791    1.00   0.00  0.00  0.00  0.06  0.94  0.00  0.00  0.10  0.00
  YS02001791YS02001793    1.00   0.00  0.00  0.00  0.00  1.00  0.00  0.00  0.03  0.00
  YS02001793JiankangQianchi    1.00   0.00  0.00  0.00  0.83  0.17  0.00  0.00  0.95  0.00
  YS02001882YS02001884    1.00   0.12  0.00  0.00  0.88  0.00  0.00  0.00  0.00  0.00
  YS02001884YS02001887    1.00   0.09  0.02  0.00  0.89  0.00  0.00  0.00  0.00  0.00
  YS02001887YS02001890    1.00   0.00  0.00  0.00  0.93  0.00  0.07  0.00  0.00  0.00
  YS02001890YS02001895    1.00   0.01  0.11  0.00  0.88  0.00  0.00  0.00  0.00  0.00
  YS02001895YS02001898    1.00   0.12  0.00  0.00  0.88  0.00  0.00  0.00  0.00  0.00
  YS02001898YS02001901    1.00   0.12  0.00  0.00  0.88  0.00  0.00  0.00  0.00  0.00
  YS02001901YS02001904    1.00   0.12  0.00  0.00  0.88  0.00  0.00  0.00  0.00  0.00
  YS02001904YS02001907    1.00   0.00  0.11  0.00  0.88  0.00  0.00  0.00  0.00  0.00
  YS02001907YS02006553    1.00   0.00  0.06  0.00  0.93  0.00  0.00  0.00  0.00  0.00
  YS02001910YS02001907    1.00   0.00  0.00  0.00  0.93  0.00  0.00  0.07  0.11  0.00
  YS02001915YS02001910    1.00   0.00  0.00  0.00  0.98  0.02  0.00  0.00  0.11  0.00
  YS02001918YS02001915    1.00   0.00  0.02  0.00  0.95  0.03  0.00  0.00  0.64  0.00
  YS02001920YS02001918    1.00   0.00  0.02  0.00  0.98  0.00  0.00  0.00  0.00  0.00
  YS02001923YS02001920    1.00   0.00  0.00  0.00  1.00  0.00  0.00  0.00  0.79  0.00
  YS02001926YS02001923    1.00   0.00  0.09  0.00  0.25  0.00  0.65  0.00  0.00  0.00
  YS02001929YS02001926    1.00   0.00  0.11  0.00  0.89  0.00  0.00  0.00  0.70  0.00
  YS02006553YS02006556    1.00   0.05  0.00  0.00  0.95  0.00  0.00  0.00  0.03  0.00
  YS02006556YS02006558    1.00   0.00  0.01  0.00  0.99  0.00  0.00  0.00  0.00  0.00
  YS02006558YS02006561    1.00   0.12  0.00  0.00  0.24  0.64  0.00  0.00  0.11  0.00
  YS02006561YS02001783    1.00   0.12  0.00  0.00  0.31  0.57  0.00  0.00  0.61  0.00
  YS02163301YS02001633    1.00   0.00  0.11  0.00  0.89  0.00  0.00  0.00  0.00  0.00
  YS02163601YS02164001    1.00   0.00  0.09  0.00  0.91  0.00  0.00  0.00  0.00  0.00
  YS02164001YS02001641    1.00   0.03  0.07  0.00  0.91  0.00  0.00  0.00  0.05  0.00
  YSB1154YSB6556          1.00   0.11  0.00  0.00  0.89  0.00  0.00  0.00  0.01  0.00
  YSB1171HS02004479       1.00   0.08  0.00  0.00  0.92  0.00  0.00  0.01  0.09  0.00
  YSB1174YSB1171          1.00   0.08  0.02  0.00  0.90  0.00  0.00  0.00  0.00  0.00
  YSB6556YSB1171          1.00   0.08  0.03  0.00  0.89  0.00  0.00  0.00  0.00  0.00
  
  
  *************************
  Conduit Surcharge Summary
  *************************
  
  ----------------------------------------------------------------------------
                                                           Hours        Hours 
                         --------- Hours Full --------   Above Full   Capacity
  Conduit                Both Ends  Upstream  Dnstream   Normal Flow   Limited
  ----------------------------------------------------------------------------
  HS02004478WS02006287        0.73      0.73      0.92      0.01         0.01
  HS02004479HS02004480        0.94      0.94      0.95      0.01         0.01
  HS02004480HS02004478        0.84      0.93      0.84      1.93         0.84
  HS02004770HS02004777        0.83      0.83      0.84      0.12         0.09
  HS02004777HS02004785        0.77      0.77      0.84      0.01         0.01
  HS02004785HS02004788        0.75      0.77      0.75      1.80         0.66
  HS02004788HS02004792        0.75      0.75      0.90      0.01         0.01
  HS02004792HS02004799        0.90      0.90      1.03      0.01         0.01
  HS02004799HS02004480        0.93      0.93      1.03      1.21         0.01
  HS02004802HS02004478        0.86      0.86      0.94      0.20         0.01
  HS02004807HS02004802        0.90      0.90      0.93      0.38         0.39
  HS02004817HS02004807        0.90      0.90      1.71      0.01         0.01
  HS02004817HS02004824        0.75      0.75      1.71      0.01         0.01
  HS02004824HS02004830        0.71      0.71      0.75      0.01         0.01
  HS02004830HS02004837        0.66      0.66      0.71      0.01         0.01
  HS02004837HS02004842        0.66      0.66      0.83      0.01         0.01
  HS02004842HS02004848        0.64      0.64      0.83      0.01         0.01
  HS02004848HS02004852        0.63      0.64      0.67      0.02         0.01
  HS02004852HS02004856        0.67      0.67      0.69      0.02         0.01
  HS02004856HS02004862        0.65      0.65      0.70      0.02         0.01
  HS02004862HS02004870        0.69      0.70      0.72      0.29         0.28
  HS02004870HS02004876        0.72      0.72      0.83      0.01         0.01
  HS02004876HS02004881        0.81      0.83      0.81      1.81         0.81
  HS02004881HS02006253        0.81      0.81      2.26      0.01         0.01
  HS02004901HS02004770        0.83      0.83      0.84      0.08         0.01
  WS02001213WS02003059        0.01      0.01      0.01      0.01         0.01
  WS02003059WS02003060        0.01      0.01      0.01      0.01         0.01
  WS02003072WS02003073        0.01      0.01      0.01      2.65         0.01
  WS02004401WS02004402        1.93      1.93      1.96      1.81         1.78
  WS02004402WS02004403        1.96      1.96      1.97      1.94         1.92
  WS02004403WS02004404        1.97      1.97      2.10      0.01         0.06
  WS02004404WS02004405        2.08      2.10      2.08      3.01         2.08
  WS02004405WS02004406        2.05      2.08      2.05      2.32         2.05
  WS02004406WS02004407        0.03      0.03      2.05      0.01         0.01
  WS02004407WS02004409        0.03      0.03      1.43      0.01         0.01
  WS02004409WS02004410        1.23      1.43      1.23      1.87         1.23
  WS02004410WS02004411        1.16      1.23      1.16      1.91         1.16
  WS02004411WS02004412        1.05      1.16      1.05      1.93         1.05
  WS02004412WS02004413        1.05      1.05      1.74      0.01         0.01
  WS02004413WS02003067        0.01      0.01      1.74      0.01         0.01
  WS02006109WS02006110        2.31      2.31      2.48      2.32         0.01
  WS02006110WS02006113        1.73      1.73      2.48      0.37         0.01
  WS02006111WS02006112        1.71      1.71      2.57      0.01         0.01
  WS02006112WS02006115        1.87      1.87      2.35      0.01         0.01
  WS02006113WS02006111        1.72      1.73      1.72      1.81         1.72
  WS02006115WS02006116        1.88      1.88      1.88      1.89         1.85
  WS02006116WS02004401        1.93      1.93      1.93      1.93         1.90
  WS02006228WS02006109        2.47      2.48      2.47      2.61         2.47
  WS02006229WS02006228        2.47      2.47      2.47      2.54         2.46
  WS02006230WS02006229        2.50      2.51      2.50      3.39         1.04
  WS02006231WS02006230        2.13      2.13      2.29      2.77         1.42
  WS02006232WS02006231        2.23      2.23      2.43      0.06         0.19
  WS02006234WS02006232        2.29      2.29      2.43      0.03         0.13
  WS02006235WS02006234        2.18      2.20      2.26      2.52         1.42
  WS02006238WS02006235        2.31      2.31      2.41      0.01         0.49
  WS02006239WS02006238        2.36      2.39      2.36      1.61         0.30
  WS02006240WS02006239        2.28      2.34      2.29      1.59         0.25
  WS02006242WS02006240        2.32      2.32      2.39      1.75         1.19
  WS02006243WS02006242        2.34      2.34      2.39      0.01         0.10
  WS02006245WS02006243        2.31      2.32      2.32      0.37         0.28
  WS02006247WS02006245        2.31      2.35      2.31      2.27         0.64
  WS02006248WS02006247        2.31      2.31      2.33      0.01         0.13
  WS02006249WS02006248        2.30      2.30      2.32      0.80         0.01
  WS02006251WS02006249        2.31      2.32      2.32      2.33         2.29
  WS02006252WS02006251        2.35      2.47      2.63      2.24         0.14
  WS02006253WS02006251        2.31      2.31      2.34      1.08         0.01
  WS02006256WS02006235        2.73      2.86      6.84      0.78         0.02
  WS02006280WS02006229        1.08      1.08      1.21      0.01         0.01
  WS02006284WS02006280        0.95      0.95      1.06      0.01         0.01
  WS02006287WS02006284        0.84      0.84      0.96      0.43         0.42
  YS02001580YS02001583        1.66      1.66      1.71      0.01         0.01
  YS02001583YS02001586        1.67      1.67      1.78      0.01         0.01
  YS02001586YS02001590        1.79      1.79      1.86      0.01         0.01
  YS02001590YS02001593        1.85      1.85      1.88      1.89         0.01
  YS02001593YS02001596        1.87      1.87      1.95      0.01         0.01
  YS02001596YS02001600        2.00      2.00      2.05      0.01         0.01
  YS02001600YS02001601        2.08      2.08      2.24      0.01         0.01
  YS02001601YS02001602        2.18      2.18      2.27      2.07         0.01
  YS02001602YS02001605        2.15      2.15      2.18      2.81         0.01
  YS02001605YS02001607        2.12      2.15      2.12      2.22         2.12
  YS02001607YS02001610        1.81      1.81      1.83      0.01         0.01
  YS02001610YS02001613        1.80      1.80      1.83      0.01         0.01
  YS02001613YS02001616        1.77      1.77      1.80      0.01         0.01
  YS02001616YS02001619        1.75      1.75      1.77      0.60         0.45
  YS02001619YS02001622        1.75      1.75      1.75      1.85         1.72
  YS02001622YS02001625        1.75      1.75      1.91      0.01         0.01
  YS02001625YS02001629        1.65      1.65      1.91      0.01         0.01
  YS02001629YS02163301        1.90      1.90      1.91      0.84         0.41
  YS02001633YS02163601        1.93      1.93      1.95      0.60         0.60
  YS02001641YS02001644        1.83      1.86      1.83      2.25         1.80
  YS02001644YS02001647        1.45      1.45      1.83      0.01         0.01
  YS02001647YS02001649        1.45      1.45      1.54      0.01         0.01
  YS02001649YS02001757        1.52      1.54      1.56      0.54         0.32
  YS02001652YS02001649        1.39      1.39      1.54      0.26         0.25
  YS02001655YS02001652        1.19      1.19      1.38      0.25         0.25
  YS02001658YS02001655        0.98      0.98      1.19      0.21         0.21
  YS02001661YS02001658        0.56      0.56      0.98      0.19         0.19
  YS02001664YS02001661        0.38      0.38      0.65      0.01         0.01
  YS02001745YS02001748        0.37      0.37      0.84      0.05         0.05
  YS02001748YS02001751        0.91      0.91      1.09      0.11         0.11
  YS02001751YS02001754        1.09      1.09      1.23      0.10         0.10
  YS02001754YS02001757        1.28      1.28      1.56      0.01         0.01
  YS02001757CaochengTiaoxuchi        1.41      1.56      1.68      1.41         1.06
  YS02001759YS02001757        1.49      1.49      1.56      0.18         0.11
  YS02001762YS02001759        1.46      1.46      1.49      0.01         0.01
  YS02001765YS02001762        1.43      1.43      1.46      0.01         0.01
  YS02001767YS02001765        1.40      1.40      1.43      0.01         0.02
  YS02001770YS02001767        1.40      1.41      1.40      1.51         0.84
  YS02001774YS02001770        1.38      1.38      1.46      0.01         0.01
  YS02001779YS02001774        1.26      1.26      1.46      0.01         0.01
  YS02001783YS02001784        1.51      1.54      1.51      1.74         1.51
  YS02001784YS02001785        1.33      1.51      1.33      1.87         1.33
  YS02001786YS02001788        0.01      1.33      0.01      1.82         0.01
  YS02001790YS02001791        0.01      0.01      0.01      1.48         0.01
  YS02001793JiankangQianchi        0.01      0.01      7.30      0.01         0.01
  YS02001882YS02001884        1.45      1.45      1.47      0.01         0.01
  YS02001884YS02001887        1.51      1.51      1.53      0.01         0.01
  YS02001887YS02001890        1.55      1.55      1.57      0.65         0.01
  YS02001890YS02001895        1.43      1.43      1.59      0.01         0.01
  YS02001895YS02001898        1.42      1.42      1.43      0.01         0.01
  YS02001898YS02001901        1.44      1.44      1.51      0.01         0.01
  YS02001901YS02001904        1.49      1.49      1.51      0.01         0.01
  YS02001904YS02001907        1.49      1.49      1.82      0.01         0.01
  YS02001907YS02006553        1.88      1.88      1.91      0.31         0.32
  YS02001910YS02001907        1.58      1.58      1.80      0.46         0.46
  YS02001915YS02001910        1.45      1.45      1.58      0.01         0.05
  YS02001918YS02001915        1.31      1.31      1.45      0.01         0.01
  YS02001920YS02001918        1.31      1.31      1.33      0.31         0.01
  YS02001923YS02001920        1.25      1.25      1.33      0.01         0.01
  YS02001926YS02001923        0.62      0.62      0.67      0.45         0.01
  YS02001929YS02001926        0.47      0.47      0.67      0.01         0.01
  YS02006553YS02006556        1.71      1.71      1.81      0.26         0.26
  YS02006556YS02006558        1.77      1.77      1.82      0.25         0.01
  YS02006558YS02006561        1.36      1.68      1.36      1.86         1.36
  YS02006561YS02001783        1.27      1.27      1.54      0.01         0.01
  YS02163301YS02001633        1.91      1.91      1.94      0.34         0.01
  YS02163601YS02164001        1.87      1.87      1.95      0.38         0.01
  YS02164001YS02001641        1.86      1.87      1.86      1.37         1.27
  YSB1154YSB6556              0.99      0.99      1.23      0.01         0.01
  YSB1171HS02004479           0.88      0.88      1.23      0.01         0.01
  YSB1174YSB1171              1.09      1.09      1.62      0.01         0.01
  YSB6556YSB1171              0.99      0.99      1.75      0.01         0.01
  
  
  ***************
  Pumping Summary
  ***************
  
  ---------------------------------------------------------------------------------------------------------
                                                  Min       Avg       Max     Total     Power    % Time Off
                        Percent   Number of      Flow      Flow      Flow    Volume     Usage    Pump Curve
  Pump                 Utilized   Start-Ups       LPS       LPS       LPS  10^6 ltr     Kw-hr    Low   High
  ---------------------------------------------------------------------------------------------------------
  CC-R1                   24.65          18      0.00    926.94   1024.50     6.371    119.24    0.0   20.8
  CC-R2                   32.74          76      0.00   1003.89   1024.50     9.434    172.84    0.0   35.7
  CC-S1                   29.04          70      0.00    241.58    300.00     2.047     14.73    0.0    0.0
  CC-S2                   32.06          46      0.00    293.80    300.00     2.704     18.97    0.0    0.0
  JK-R1                    7.28          35      0.00   1291.29   1500.00     2.713     27.85    0.0    0.0
  JK-R2                    8.66          58      0.00   1493.00   1500.00     3.718     23.32    0.0    0.0
  JK-S                    11.83          60      0.00    431.42    450.00     1.460     23.35    0.0    0.0
  XR-1                    97.91           2      0.00     95.00     95.00     2.679      9.60    0.0    0.0
  XR-2                    93.94           2      0.00     95.00     95.00     2.570      8.76    0.0    0.0
  XR-3                     0.00           1      0.00     95.00     95.00     0.000      0.00    0.0    0.0
  XR-4                     0.00           1      0.00     95.00     95.00     0.000      0.00    0.0    0.0
  

  Analysis begun on:  Thu Jul 20 19:03:00 2023
  Analysis ended on:  Thu Jul 20 19:03:33 2023
  Total elapsed time: 00:00:33