
  OWA STORM WATER MANAGEMENT MODEL - VERSION v5.1.14 (OWA 2022-07-31)
  --------------------------------------------------------------

  WARNING 04: minimum elevation drop used for Conduit WS02004404WS02004405
  WARNING 03: negative offset ignored for Link YS02001904YS02001907
  
  *********************************************************
  NOTE: The summary statistics displayed in this report are
  based on results found at every computational time step,  
  not just on results from each reporting time step.
  *********************************************************
  
  ****************
  Analysis Options
  ****************
  Flow Units ............... LPS
  Process Models:
    Rainfall/Runoff ........ YES
    RDII ................... NO
    Snowmelt ............... NO
    Groundwater ............ NO
    Flow Routing ........... YES
    Ponding Allowed ........ NO
    Water Quality .......... NO
  Infiltration Method ...... HORTON
  Flow Routing Method ...... DYNWAVE
  Surcharge Method ......... EXTRAN
  Starting Date ............ 08/28/2015 08:00:00
  Ending Date .............. 08/28/2015 16:00:00
  Antecedent Dry Days ...... 8.0
  Report Time Step ......... 00:01:00
  Wet Time Step ............ 00:01:00
  Dry Time Step ............ 00:01:00
  Routing Time Step ........ 30.00 sec
  Variable Time Step ....... YES
  Maximum Trials ........... 8
  Number of Threads ........ 4
  Head Tolerance ........... 0.001500 m
  
  
  **************************        Volume         Depth
  Runoff Quantity Continuity     hectare-m            mm
  **************************     ---------       -------
  Initial LID Storage ......         0.049         1.488
  Total Precipitation ......         4.079       122.978
  Evaporation Loss .........         0.000         0.000
  Infiltration Loss ........         0.081         2.442
  Surface Runoff ...........         3.188        96.099
  Final Storage ............         0.861        25.954
  Continuity Error (%) .....        -0.024
  
  
  **************************        Volume        Volume
  Flow Routing Continuity        hectare-m      10^6 ltr
  **************************     ---------     ---------
  Dry Weather Inflow .......         0.000         0.000
  Wet Weather Inflow .......         3.187        31.871
  Groundwater Inflow .......         0.000         0.000
  RDII Inflow ..............         0.000         0.000
  External Inflow ..........         0.083         0.834
  External Outflow .........         1.929        19.290
  Flooding Loss ............         1.445        14.452
  Evaporation Loss .........         0.000         0.000
  Exfiltration Loss ........         0.000         0.000
  Initial Stored Volume ....         0.243         2.431
  Final Stored Volume ......         0.178         1.782
  Continuity Error (%) .....        -1.105
  
  
  *************************
  Highest Continuity Errors
  *************************
  Node WS02006256 (-5.06%)
  Node YS02001884 (3.97%)
  Node YS02001583 (-3.85%)
  Node WS02006110 (-1.36%)
  Node WS02006111 (-1.05%)
  
  
  ***************************
  Time-Step Critical Elements
  ***************************
  Link WS02006252WS02006251 (24.18%)
  Link WS02004404WS02004405 (19.73%)
  Link WS02006238WS02006235 (15.45%)
  Link YS02001791YS02001793 (10.36%)
  Link WS02006235WS02006234 (7.88%)
  
  
  ********************************
  Highest Flow Instability Indexes
  ********************************
  Link WS02006113WS02006111 (40)
  Link WS02006256WS02006235 (30)
  Link WS02006252WS02006251 (28)
  Link WS02006238WS02006235 (26)
  Link WS02006111WS02006112 (22)
  
  
  *************************
  Routing Time Step Summary
  *************************
  Minimum Time Step           :     0.00 sec
  Average Time Step           :     2.77 sec
  Maximum Time Step           :    30.00 sec
  Percent in Steady State     :    -0.00
  Average Iterations per Step :     4.13
  Percent Not Converging      :    23.33
  
  
  ***************************
  Subcatchment Runoff Summary
  ***************************
  
  ------------------------------------------------------------------------------------------------------------------------------
                            Total      Total      Total      Total     Imperv       Perv      Total       Total     Peak  Runoff
                           Precip      Runon       Evap      Infil     Runoff     Runoff     Runoff      Runoff   Runoff   Coeff
  Subcatchment                 mm         mm         mm         mm         mm         mm         mm    10^6 ltr      LPS
  ------------------------------------------------------------------------------------------------------------------------------
  sub60                    139.36       0.00       0.00       1.45      93.74      11.46     107.87        1.42   960.35   0.774
  sub61                    139.36       0.00       0.00       2.23      93.65      17.14     112.93        2.07  1404.22   0.810
  sub62                    139.36       0.00       0.00       0.99      99.86       7.78     110.15        3.02  1951.45   0.790
  sub63                    139.36       0.00       0.00       4.09      80.21      28.99     111.34        2.53  1632.37   0.799
  sub64                    139.36       0.00       0.00       1.96      91.36      14.32     108.28        2.60  1615.76   0.777
  sub65                    139.36       0.00       0.00       1.80      98.62      13.09     113.80        3.13  1893.54   0.817
  sub66                    139.36       0.00       0.00       4.78      77.63      27.27     107.33        5.01  2565.48   0.770
  sub67                     76.19       0.00       0.00       0.94      55.49       3.97      59.47        1.11   820.67   0.781
  sub68                     76.19       0.00       0.00       1.65      49.01       6.48      55.49        1.53  1065.58   0.728
  sub69                    139.36       0.00       0.00       1.59      93.80      14.97     111.21        4.12  2445.62   0.798
  sub70                    139.36       0.00       0.00       5.34      75.20      33.45     110.77        3.20  1483.22   0.795
  sub71                     76.19       0.00       0.00       0.88      49.18       3.48      52.66        1.38   883.18   0.691
  sub72                     76.19       0.00       0.00       0.84      53.13       3.24      56.37        0.78   462.98   0.740
  

  ***********************
  LID Performance Summary
  ***********************

  --------------------------------------------------------------------------------------------------------------------
                                         Total      Evap     Infil   Surface    Drain    Initial     Final  Continuity
                                        Inflow      Loss      Loss   Outflow   Outflow   Storage   Storage       Error
  Subcatchment      LID Control             mm        mm        mm        mm        mm        mm        mm           %
  --------------------------------------------------------------------------------------------------------------------
  sub60             GreenRoof           139.36      0.00      0.00     11.73      0.00      7.05    134.68        0.00
  sub61             GreenRoof           139.36      0.00      0.00     11.73      0.00      7.05    134.68        0.00
  sub62             GreenRoof           139.36      0.00      0.00     11.73      0.00      7.05    134.68        0.00
  sub63             GreenRoof           139.36      0.00      0.00     11.73      0.00      7.05    134.68        0.00
  sub64             GreenRoof           139.36      0.00      0.00     11.73      0.00      7.05    134.68        0.00
  sub65             GreenRoof           139.36      0.00      0.00     11.73      0.00      7.05    134.68        0.00
  sub66             GreenRoof           139.36      0.00      0.00     11.73      0.00      7.05    134.68        0.00
  sub67             GreenRoof            76.19      0.00      0.00      0.00      0.00      7.05     83.32       -0.10
  sub68             GreenRoof            76.19      0.00      0.00      0.00      0.00      7.05     83.32       -0.10
  sub69             GreenRoof           139.36      0.00      0.00     11.73      0.00      7.05    134.68        0.00
  sub70             GreenRoof           139.36      0.00      0.00     11.73      0.00      7.05    134.68        0.00
  sub71             GreenRoof            76.19      0.00      0.00      0.00      0.00      7.05     83.32       -0.10
  sub72             GreenRoof            76.19      0.00      0.00      0.00      0.00      7.05     83.32       -0.10
  
  ******************
  Node Depth Summary
  ******************
  
  ---------------------------------------------------------------------------------
                                 Average  Maximum  Maximum  Time of Max    Reported
                                   Depth    Depth      HGL   Occurrence   Max Depth
  Node                 Type       Meters   Meters   Meters  days hr:min      Meters
  ---------------------------------------------------------------------------------
  WS02003060           JUNCTION     0.21     0.38     5.31     0  02:27        0.37
  WS02003066           JUNCTION     0.18     0.29     5.85     0  02:26        0.29
  WS02003067           JUNCTION     0.48     0.69     6.01     0  02:26        0.69
  WS02003069           JUNCTION     0.24     0.42     5.00     0  02:27        0.42
  WS02003072           JUNCTION     0.30     0.49     4.86     0  02:28        0.49
  WS02003073           JUNCTION     0.17     0.29     4.36     0  02:29        0.29
  WS02004401           JUNCTION     0.57     0.84     6.84     0  02:24        0.84
  WS02004402           JUNCTION     0.60     0.87     6.83     0  02:24        0.87
  WS02004403           JUNCTION     0.63     0.88     6.81     0  02:24        0.88
  WS02004404           JUNCTION     0.70     0.96     6.81     0  02:24        0.95
  WS02004405           JUNCTION     0.70     0.95     6.80     0  02:24        0.95
  WS02004406           JUNCTION     0.72     0.95     6.78     0  02:24        0.95
  WS02004407           JUNCTION     0.16     0.29     6.61     0  02:25        0.29
  WS02004409           JUNCTION     0.36     0.65     6.42     0  02:25        0.65
  WS02004410           JUNCTION     0.39     0.66     6.38     0  02:25        0.66
  WS02004411           JUNCTION     0.41     0.68     6.36     0  02:26        0.68
  WS02004412           JUNCTION     0.44     0.68     6.32     0  02:26        0.68
  WS02004413           JUNCTION     0.60     0.85     6.32     0  02:26        0.84
  WS02006109           JUNCTION     0.61     1.24     7.85     0  00:00        0.98
  WS02006110           JUNCTION     0.62     1.45     8.04     0  00:00        0.93
  WS02006111           JUNCTION     0.16     1.67     8.37     0  00:00        0.56
  WS02006112           JUNCTION     0.72     2.68     8.56     0  00:00        1.29
  WS02006113           JUNCTION     0.24     1.50     8.40     0  00:00        0.45
  WS02006115           JUNCTION     0.45     1.69     7.83     0  00:00        0.86
  WS02006116           JUNCTION     0.53     1.11     7.15     0  00:00        0.82
  WS02006228           JUNCTION     0.60     1.64     8.29     0  00:00        1.02
  WS02006229           JUNCTION     0.56     1.31     8.00     0  00:00        1.04
  WS02006230           JUNCTION     0.56     1.47     8.21     0  02:39        1.17
  WS02006231           JUNCTION     0.36     1.13     8.25     0  02:39        0.93
  WS02006232           JUNCTION     0.49     1.94     8.98     0  01:44        1.14
  WS02006234           JUNCTION     0.41     1.65     8.81     0  03:38        1.30
  WS02006235           JUNCTION     0.44     1.50     8.66     0  02:38        1.48
  WS02006238           JUNCTION     0.47     1.54     8.69     0  02:38        1.54
  WS02006239           JUNCTION     0.44     1.58     8.79     0  02:09        1.58
  WS02006240           JUNCTION     0.42     1.56     8.85     0  02:09        1.56
  WS02006242           JUNCTION     0.48     1.55     8.82     0  02:09        1.55
  WS02006243           JUNCTION     0.41     1.47     8.89     0  02:09        1.47
  WS02006245           JUNCTION     0.42     1.37     8.86     0  02:09        1.37
  WS02006247           JUNCTION     0.44     1.32     8.82     0  02:09        1.32
  WS02006248           JUNCTION     0.41     1.10     8.69     0  02:09        1.10
  WS02006249           JUNCTION     0.44     1.09     8.69     0  01:46        1.09
  WS02006251           JUNCTION     0.44     1.32     8.99     0  02:39        1.23
  WS02006252           JUNCTION     0.31     1.50     9.74     0  00:11        1.50
  WS02006256           JUNCTION     0.80     2.35     9.28     0  00:06        2.35
  WSF200               JUNCTION     0.15     0.28     5.52     0  02:26        0.28
  YS02001580           JUNCTION     0.19     1.05     9.59     0  01:36        0.77
  YS02001583           JUNCTION     0.22     1.05     9.55     0  01:36        0.82
  YS02001586           JUNCTION     0.34     1.13     9.30     0  01:36        1.13
  YS02001590           JUNCTION     0.46     1.38     9.24     0  01:36        1.38
  YS02001593           JUNCTION     0.39     1.32     9.18     0  01:36        1.32
  YS02001596           JUNCTION     0.53     1.80     9.22     0  01:46        1.80
  YS02001600           JUNCTION     0.62     1.87     9.00     0  01:36        1.87
  YS02001601           JUNCTION     0.80     2.06     8.90     0  01:35        2.06
  YS02001602           JUNCTION     0.70     1.87     8.77     0  01:36        1.87
  YS02001605           JUNCTION     0.65     1.78     8.68     0  02:09        1.78
  YS02001607           JUNCTION     0.62     1.68     8.53     0  01:46        1.68
  YS02001610           JUNCTION     0.66     1.68     8.48     0  01:39        1.68
  YS02001613           JUNCTION     0.62     1.67     8.51     0  01:46        1.66
  YS02001616           JUNCTION     0.56     1.61     8.52     0  01:44        1.61
  YS02001619           JUNCTION     0.54     1.61     8.54     0  01:44        1.61
  YS02001622           JUNCTION     0.53     1.62     8.52     0  01:46        1.62
  YS02001625           JUNCTION     0.77     1.78     8.38     0  01:39        1.78
  YS02001629           JUNCTION     0.67     1.85     8.40     0  01:40        1.85
  YS02001633           JUNCTION     0.74     2.08     8.53     0  01:46        2.08
  YS02001641           JUNCTION     0.71     2.07     8.50     0  02:25        2.07
  YS02001644           JUNCTION     0.70     1.92     8.35     0  01:42        1.92
  YS02001647           JUNCTION     0.49     1.90     8.51     0  01:46        1.90
  YS02001649           JUNCTION     0.56     2.05     8.44     0  01:46        2.05
  YS02001652           JUNCTION     0.44     2.16     8.76     0  01:46        2.16
  YS02001655           JUNCTION     0.35     2.20     9.05     0  01:46        2.20
  YS02001658           JUNCTION     0.26     2.00     9.14     0  01:46        2.00
  YS02001661           JUNCTION     0.24     1.62     9.03     0  01:49        1.62
  YS02001664           JUNCTION     0.10     1.25     9.17     0  01:49        1.25
  YS02001745           JUNCTION     0.14     1.11     8.62     0  01:49        1.10
  YS02001748           JUNCTION     0.25     1.49     8.56     0  01:49        1.49
  YS02001751           JUNCTION     0.30     1.89     8.77     0  01:46        1.89
  YS02001754           JUNCTION     0.40     2.20     8.81     0  01:46        2.20
  YS02001757           JUNCTION     0.58     2.21     8.47     0  01:46        2.21
  YS02001759           JUNCTION     0.52     2.21     8.57     0  01:46        2.21
  YS02001762           JUNCTION     0.51     2.15     8.55     0  01:46        2.15
  YS02001765           JUNCTION     0.49     2.10     8.55     0  01:46        2.10
  YS02001767           JUNCTION     0.48     2.03     8.52     0  01:46        2.03
  YS02001770           JUNCTION     0.49     1.95     8.44     0  01:44        1.95
  YS02001774           JUNCTION     0.55     2.05     8.47     0  01:46        2.05
  YS02001779           JUNCTION     0.38     1.68     8.37     0  01:41        1.68
  YS02001783           JUNCTION     0.24     1.26     7.40     0  02:24        1.26
  YS02001784           JUNCTION     0.24     1.12     7.19     0  02:11        1.11
  YS02001786           JUNCTION     0.20     0.88     6.91     0  02:09        0.87
  YS02001788           JUNCTION     0.15     0.62     6.60     0  02:11        0.62
  YS02001790           JUNCTION     0.17     0.72     6.37     0  02:16        0.72
  YS02001791           JUNCTION     0.11     0.44     5.91     0  02:13        0.43
  YS02001793           JUNCTION     0.06     0.21     5.04     0  02:13        0.21
  YS02001882           JUNCTION     0.31     1.65     8.37     0  02:07        1.64
  YS02001884           JUNCTION     0.39     1.75     8.37     0  02:11        1.75
  YS02001887           JUNCTION     0.46     1.89     8.43     0  02:09        1.89
  YS02001890           JUNCTION     0.49     1.81     8.32     0  02:07        1.81
  YS02001895           JUNCTION     0.28     1.57     8.31     0  02:25        1.56
  YS02001898           JUNCTION     0.28     1.58     8.31     0  02:09        1.58
  YS02001901           JUNCTION     0.39     1.68     8.29     0  02:25        1.67
  YS02001904           JUNCTION     0.37     1.65     8.28     0  02:25        1.64
  YS02001907           JUNCTION     0.66     1.96     8.25     0  02:07        1.96
  YS02001910           JUNCTION     0.48     1.97     8.48     0  02:08        1.93
  YS02001915           JUNCTION     0.31     1.92     8.64     0  02:08        1.87
  YS02001918           JUNCTION     0.16     1.81     8.88     0  02:08        1.75
  YS02001920           JUNCTION     0.23     2.08     9.09     0  02:08        1.87
  YS02001923           JUNCTION     0.13     1.98     9.24     0  02:08        1.75
  YS02001926           JUNCTION     0.16     1.90     9.35     0  02:08        1.90
  YS02001929           JUNCTION     0.09     1.78     9.47     0  02:08        0.86
  YS02006553           JUNCTION     0.66     2.04     8.32     0  02:09        2.04
  YS02006556           JUNCTION     0.64     1.99     8.30     0  02:09        1.99
  YS02006558           JUNCTION     0.67     2.13     8.40     0  02:09        2.13
  YS02006561           JUNCTION     0.15     0.91     7.57     0  02:09        0.90
  YS02163301           JUNCTION     0.69     1.97     8.48     0  01:50        1.97
  YS02163601           JUNCTION     0.77     2.08     8.48     0  01:46        2.08
  YS02164001           JUNCTION     0.70     2.10     8.56     0  01:46        2.10
  CC-1                 OUTFALL      0.00     0.00     0.00     0  00:00        0.00
  CC-2                 OUTFALL      0.00     0.00     0.00     0  00:00        0.00
  JK-1                 OUTFALL      0.00     0.00     0.00     0  00:00        0.00
  JK-2                 OUTFALL      0.00     0.00     0.00     0  00:00        0.00
  WSC                  OUTFALL      0.16     0.29     0.96     0  02:29        0.29
  CC-storage           STORAGE      0.90     1.86     7.36     0  02:32        1.86
  JK-storage           STORAGE      1.17     3.00     3.80     0  00:00        3.00
  
  
  *******************
  Node Inflow Summary
  *******************
  
  -------------------------------------------------------------------------------------------------
                                  Maximum  Maximum                  Lateral       Total        Flow
                                  Lateral    Total  Time of Max      Inflow      Inflow     Balance
                                   Inflow   Inflow   Occurrence      Volume      Volume       Error
  Node                 Type           LPS      LPS  days hr:min    10^6 ltr    10^6 ltr     Percent
  -------------------------------------------------------------------------------------------------
  WS02003060           JUNCTION     16.53   530.93     0  02:27       0.476        4.54       0.046
  WS02003066           JUNCTION      0.00   513.49     0  02:26           0        4.07       0.031
  WS02003067           JUNCTION      0.00   513.11     0  02:26           0        4.07       0.098
  WS02003069           JUNCTION      0.32   531.28     0  02:27     0.00922        4.55       0.076
  WS02003072           JUNCTION      0.00   529.43     0  02:28           0        4.55       0.140
  WS02003073           JUNCTION      1.82   529.89     0  02:28      0.0524        4.59       0.109
  WS02004401           JUNCTION      0.00  1786.04     0  00:00           0        4.18       0.254
  WS02004402           JUNCTION      0.00  1248.69     0  00:01           0        4.17       0.256
  WS02004403           JUNCTION      0.00   929.44     0  00:01           0        4.16       0.253
  WS02004404           JUNCTION      0.00   877.02     0  00:01           0        4.15       0.204
  WS02004405           JUNCTION      0.00   827.31     0  00:01           0        4.14       0.306
  WS02004406           JUNCTION      0.00   768.45     0  00:02           0        4.13       0.512
  WS02004407           JUNCTION      0.00   526.17     0  02:24           0        4.11       0.021
  WS02004409           JUNCTION      0.00   525.61     0  02:25           0        4.11       0.056
  WS02004410           JUNCTION      0.00   521.39     0  02:25           0         4.1       0.099
  WS02004411           JUNCTION      0.00   518.83     0  02:25           0         4.1       0.128
  WS02004412           JUNCTION      0.00   517.02     0  02:26           0        4.09       0.171
  WS02004413           JUNCTION      0.00   514.63     0  02:26           0        4.09       0.317
  WS02006109           JUNCTION      0.00  1446.81     0  00:00           0        4.07      -0.191
  WS02006110           JUNCTION      0.00   559.91     0  02:39           0        4.05      -1.346
  WS02006111           JUNCTION      0.00  1180.41     0  00:00           0        4.11      -1.035
  WS02006112           JUNCTION      0.00  2307.30     0  00:00           0        4.15      -0.004
  WS02006113           JUNCTION      0.00   567.32     0  02:39           0        4.07      -0.936
  WS02006115           JUNCTION      0.00   953.54     0  00:00           0        4.12      -0.872
  WS02006116           JUNCTION      0.00  1264.47     0  00:00           0        4.16      -0.575
  WS02006228           JUNCTION      0.00   869.18     0  00:00           0        4.06      -0.042
  WS02006229           JUNCTION      0.00   557.97     0  02:39           0        4.04      -0.065
  WS02006230           JUNCTION     10.28   706.67     0  00:00       0.296        4.03       0.021
  WS02006231           JUNCTION      0.00   574.07     0  02:18           0        3.72      -0.043
  WS02006232           JUNCTION      0.00   573.44     0  02:18           0        3.72       0.149
  WS02006234           JUNCTION      0.00   569.45     0  02:18           0        3.71      -0.191
  WS02006235           JUNCTION      0.00   562.23     0  02:18           0        3.77       0.101
  WS02006238           JUNCTION      0.00   425.05     0  03:19           0        3.31      -0.205
  WS02006239           JUNCTION      0.00   422.29     0  02:23           0        3.27      -0.188
  WS02006240           JUNCTION      0.00   421.13     0  03:17           0        3.25      -0.010
  WS02006242           JUNCTION      0.00   424.75     0  03:17           0        3.25       0.048
  WS02006243           JUNCTION      0.00   425.98     0  03:17           0        3.24      -0.193
  WS02006245           JUNCTION      0.00   425.60     0  03:17           0        3.25       0.269
  WS02006247           JUNCTION      0.00   423.98     0  03:17           0        3.25       0.011
  WS02006248           JUNCTION      0.00   424.93     0  03:19           0        3.25      -0.025
  WS02006249           JUNCTION      0.00   447.78     0  01:26           0        3.34       0.229
  WS02006251           JUNCTION      0.00   407.06     0  00:11           0        3.34       0.082
  WS02006252           JUNCTION      0.00   400.00     0  00:11           0        3.31      -0.921
  WS02006256           JUNCTION      0.00   300.00     0  00:06           0       0.653      -4.816
  WSF200               JUNCTION      0.00   513.71     0  02:26           0        4.07       0.010
  YS02001580           JUNCTION      0.00    77.21     0  01:36           0     0.00413       0.925
  YS02001583           JUNCTION      0.00   143.13     0  01:36           0      0.0154      -3.706
  YS02001586           JUNCTION   1483.22  1483.22     0  01:52         3.2        3.21       0.043
  YS02001590           JUNCTION      0.00   319.49     0  02:25           0        1.78      -0.021
  YS02001593           JUNCTION      0.00   318.51     0  01:41           0        1.78      -0.002
  YS02001596           JUNCTION      0.00   318.01     0  02:27           0        1.78      -0.012
  YS02001600           JUNCTION      0.00   318.76     0  01:46           0        1.78       0.004
  YS02001601           JUNCTION   2445.62  2763.35     0  01:50        4.12        5.89       0.010
  YS02001602           JUNCTION      0.00   507.33     0  01:35           0        2.78       0.006
  YS02001605           JUNCTION      0.00   507.99     0  01:35           0        2.57       0.008
  YS02001607           JUNCTION      0.00   507.07     0  01:35           0        2.57       0.061
  YS02001610           JUNCTION      0.00   954.79     0  01:53           0        3.39       0.059
  YS02001613           JUNCTION      0.00   618.03     0  01:54           0        2.56       0.049
  YS02001616           JUNCTION      0.00   617.91     0  01:53           0        2.57       0.006
  YS02001619           JUNCTION   2565.48  2565.48     0  01:51           5        6.75      -0.003
  YS02001622           JUNCTION      0.00  1054.19     0  01:53           0        5.43      -0.004
  YS02001625           JUNCTION      0.00  1505.10     0  02:00           0        5.98       0.165
  YS02001629           JUNCTION      0.00  1046.88     0  01:50           0        4.27       0.003
  YS02001633           JUNCTION   1893.54  1893.54     0  01:50        3.13        6.51       0.043
  YS02001641           JUNCTION      0.00  1399.76     0  01:39           0        5.62       0.046
  YS02001644           JUNCTION   1615.76  3088.60     0  01:50         2.6        8.39       0.043
  YS02001647           JUNCTION      0.00  1800.61     0  01:39           0        6.45       0.002
  YS02001649           JUNCTION      0.00  2069.17     0  01:39           0         8.8       0.001
  YS02001652           JUNCTION      0.00  1641.14     0  01:50           0        2.53      -0.037
  YS02001655           JUNCTION      0.00  1638.71     0  01:50           0        2.53      -0.062
  YS02001658           JUNCTION      0.00  1636.90     0  01:50           0        2.53      -0.058
  YS02001661           JUNCTION      0.00  1635.91     0  01:50           0        2.53       0.007
  YS02001664           JUNCTION   1632.37  1632.37     0  01:50        2.53        2.53      -0.009
  YS02001745           JUNCTION    960.35   960.35     0  01:49        1.42        1.42       0.116
  YS02001748           JUNCTION      0.00   966.70     0  01:50           0        1.42      -0.196
  YS02001751           JUNCTION      0.00   968.01     0  01:49           0        1.42       0.014
  YS02001754           JUNCTION      0.00   971.17     0  01:49           0        1.42      -0.106
  YS02001757           JUNCTION      0.00  3485.47     0  01:47           0          14       0.034
  YS02001759           JUNCTION   1404.22  1493.73     0  01:48        2.07           4      -0.012
  YS02001762           JUNCTION      0.00   768.73     0  01:44           0        1.93      -0.003
  YS02001765           JUNCTION      0.00   769.80     0  01:44           0        1.93      -0.002
  YS02001767           JUNCTION      0.00   770.41     0  01:44           0        1.93      -0.001
  YS02001770           JUNCTION   1951.45  1951.45     0  01:50        3.02        3.06       0.000
  YS02001774           JUNCTION      0.00   852.35     0  01:53           0       0.835       0.132
  YS02001779           JUNCTION      0.00   851.84     0  01:53           0       0.787      -0.012
  YS02001783           JUNCTION      0.00  1164.34     0  02:12           0        3.63      -0.002
  YS02001784           JUNCTION      0.00  1164.48     0  02:12           0        3.63       0.002
  YS02001786           JUNCTION      0.00  1164.40     0  02:12           0        3.63       0.005
  YS02001788           JUNCTION      0.00  1164.35     0  02:12           0        3.63       0.002
  YS02001790           JUNCTION      0.00  1177.50     0  02:12           0        3.63       0.007
  YS02001791           JUNCTION      0.00  1282.80     0  02:16           0        3.63      -0.021
  YS02001793           JUNCTION      0.00  1244.11     0  02:13           0        3.63       0.001
  YS02001882           JUNCTION      0.00    36.57     0  02:04           0      0.0128       3.908
  YS02001884           JUNCTION      0.00    67.13     0  02:04           0      0.0491       4.129
  YS02001887           JUNCTION    820.67   822.15     0  02:13        1.11        1.14       0.345
  YS02001890           JUNCTION      0.00   820.94     0  02:13           0         1.1       0.402
  YS02001895           JUNCTION      0.00   518.42     0  02:16           0        1.01       0.146
  YS02001898           JUNCTION      0.00   517.79     0  02:16           0        1.01      -0.041
  YS02001901           JUNCTION      0.00   517.21     0  02:16           0        1.01       0.258
  YS02001904           JUNCTION      0.00   517.70     0  02:16           0        1.01       0.232
  YS02001907           JUNCTION      0.00  1875.72     0  02:14           0        3.16       0.557
  YS02001910           JUNCTION      0.00  1360.18     0  02:14           0        2.15       0.293
  YS02001915           JUNCTION    883.18  1359.34     0  02:14        1.38        2.18       0.036
  YS02001918           JUNCTION      0.00   479.21     0  02:14           0       0.827      -0.029
  YS02001920           JUNCTION      0.00   479.05     0  02:14           0       0.812       0.048
  YS02001923           JUNCTION      0.00   476.84     0  02:14           0       0.798      -0.044
  YS02001926           JUNCTION      0.00   475.36     0  02:14           0       0.782      -0.057
  YS02001929           JUNCTION    462.98   462.98     0  02:14       0.775       0.775      -0.063
  YS02006553           JUNCTION      0.00   798.01     0  02:25           0        2.16       0.529
  YS02006556           JUNCTION      0.00   798.22     0  02:25           0        2.17       0.367
  YS02006558           JUNCTION   1065.58  1165.30     0  02:11        1.53        3.67       0.096
  YS02006561           JUNCTION      0.00  1164.55     0  02:12           0        3.63      -0.002
  YS02163301           JUNCTION      0.00  1047.64     0  01:50           0        4.27       0.026
  YS02163601           JUNCTION      0.00  1400.99     0  01:39           0        5.61       0.082
  YS02164001           JUNCTION      0.00  1400.58     0  01:39           0        5.61       0.033
  CC-1                 OUTFALL       0.00   683.00     0  00:06           0        5.87       0.000
  CC-2                 OUTFALL       0.00   683.00     0  00:06           0        5.73       0.000
  JK-1                 OUTFALL       0.00  1000.00     0  00:06           0       0.724       0.000
  JK-2                 OUTFALL       0.00  1000.00     0  01:36           0        2.39       0.000
  WSC                  OUTFALL       0.00   528.11     0  02:29           0        4.59       0.000
  CC-storage           STORAGE       0.00  3486.32     0  01:44           0        16.3      -0.201
  JK-storage           STORAGE       0.00  1244.08     0  02:13           0        3.78      -0.463
  
  
  **********************
  Node Surcharge Summary
  **********************
  
  Surcharging occurs when water rises above the top of the highest conduit.
  ---------------------------------------------------------------------
                                               Max. Height   Min. Depth
                                   Hours       Above Crown    Below Rim
  Node                 Type      Surcharged         Meters       Meters
  ---------------------------------------------------------------------
  WS02006109           JUNCTION        1.91          0.416        1.404
  WS02006110           JUNCTION        0.28          0.544        1.306
  WS02006111           JUNCTION        0.01          0.856        1.014
  WS02006112           JUNCTION        0.21          1.680        0.000
  WS02006113           JUNCTION        0.01          0.705        1.225
  WS02006115           JUNCTION        0.01          0.682        1.568
  WS02006116           JUNCTION        0.01          0.053        2.237
  WS02006228           JUNCTION        1.89          0.810        1.390
  WS02006229           JUNCTION        1.91          0.510        1.940
  WS02006230           JUNCTION        0.28          0.386        1.184
  WS02006231           JUNCTION        0.35          0.420        1.110
  WS02006232           JUNCTION        1.93          1.241        0.239
  WS02006234           JUNCTION        0.68          0.931        0.309
  WS02006235           JUNCTION        1.87          0.787        0.503
  WS02006238           JUNCTION        1.91          0.823        0.607
  WS02006239           JUNCTION        1.88          0.837        0.453
  WS02006240           JUNCTION        1.88          0.847        0.543
  WS02006242           JUNCTION        1.92          0.820        0.000
  WS02006243           JUNCTION        1.89          0.759        0.011
  WS02006245           JUNCTION        1.88          0.662        0.188
  WS02006247           JUNCTION        1.89          0.609        0.151
  WS02006248           JUNCTION        1.88          0.380        0.000
  WS02006249           JUNCTION        1.88          0.390        0.000
  WS02006251           JUNCTION        0.41          0.291        0.889
  WS02006252           JUNCTION        2.15          1.100        0.000
  WS02006256           JUNCTION        5.88          2.050        0.000
  YS02001580           JUNCTION        1.04          0.450        0.000
  YS02001583           JUNCTION        1.06          0.410        0.090
  YS02001586           JUNCTION        1.23          0.510        0.000
  YS02001590           JUNCTION        1.34          0.733        0.017
  YS02001593           JUNCTION        1.34          0.696        0.144
  YS02001596           JUNCTION        1.49          1.070        0.000
  YS02001600           JUNCTION        1.61          1.190        0.000
  YS02001601           JUNCTION        1.83          1.440        0.000
  YS02001602           JUNCTION        1.77          1.270        0.000
  YS02001605           JUNCTION        1.73          1.180        0.000
  YS02001607           JUNCTION        1.36          0.680        0.000
  YS02001610           JUNCTION        1.39          0.680        0.000
  YS02001613           JUNCTION        1.35          0.670        0.030
  YS02001616           JUNCTION        1.30          0.610        0.000
  YS02001619           JUNCTION        1.28          0.610        0.000
  YS02001622           JUNCTION        1.28          0.620        0.000
  YS02001625           JUNCTION        1.49          0.780        0.000
  YS02001629           JUNCTION        1.22          0.470        0.000
  YS02001633           JUNCTION        1.52          1.060        0.000
  YS02001641           JUNCTION        1.48          1.067        0.033
  YS02001644           JUNCTION        1.46          0.920        0.000
  YS02001647           JUNCTION        1.20          0.900        0.000
  YS02001649           JUNCTION        1.37          1.050        0.000
  YS02001652           JUNCTION        1.12          1.130        0.000
  YS02001655           JUNCTION        0.89          1.200        0.000
  YS02001658           JUNCTION        0.49          0.999        0.301
  YS02001661           JUNCTION        0.23          0.554        0.836
  YS02001664           JUNCTION        0.06          0.246        1.064
  YS02001745           JUNCTION        0.04          0.105        1.245
  YS02001748           JUNCTION        0.40          0.407        0.783
  YS02001751           JUNCTION        0.70          0.887        0.313
  YS02001754           JUNCTION        1.02          1.150        0.000
  YS02001757           JUNCTION        1.42          1.210        0.000
  YS02001759           JUNCTION        1.35          1.210        0.000
  YS02001762           JUNCTION        1.32          1.150        0.000
  YS02001765           JUNCTION        1.26          1.100        0.000
  YS02001767           JUNCTION        1.21          1.030        0.000
  YS02001770           JUNCTION        1.17          0.920        0.000
  YS02001774           JUNCTION        1.30          1.050        0.000
  YS02001779           JUNCTION        0.99          0.680        0.000
  YS02001783           JUNCTION        0.48          0.455        1.145
  YS02001784           JUNCTION        0.46          0.322        1.168
  YS02001786           JUNCTION        0.35          0.078        1.352
  YS02001882           JUNCTION        0.43          0.649        0.181
  YS02001884           JUNCTION        0.44          0.688        0.182
  YS02001887           JUNCTION        0.47          0.841        0.109
  YS02001890           JUNCTION        0.49          0.760        0.000
  YS02001895           JUNCTION        0.42          0.567        0.183
  YS02001898           JUNCTION        0.41          0.548        0.192
  YS02001901           JUNCTION        0.46          0.684        0.186
  YS02001904           JUNCTION        0.45          0.645        0.205
  YS02001907           JUNCTION        0.70          0.950        0.000
  YS02001910           JUNCTION        0.51          0.972        0.128
  YS02001915           JUNCTION        0.43          0.922        0.078
  YS02001918           JUNCTION        0.35          0.810        0.000
  YS02001920           JUNCTION        0.35          1.077        0.063
  YS02001923           JUNCTION        0.08          0.769        0.051
  YS02001926           JUNCTION        0.11          0.900        0.000
  YS02001929           JUNCTION        0.01          0.780        0.000
  YS02006553           JUNCTION        0.72          1.035        0.155
  YS02006556           JUNCTION        0.61          0.949        0.401
  YS02006558           JUNCTION        0.59          1.034        0.366
  YS02006561           JUNCTION        0.31          0.112        1.038
  YS02163301           JUNCTION        1.50          0.965        0.065
  YS02163601           JUNCTION        1.55          1.080        0.000
  YS02164001           JUNCTION        1.48          1.100        0.000
  
  
  *********************
  Node Flooding Summary
  *********************
  
  Flooding refers to all water that overflows a node, whether it ponds or not.
  --------------------------------------------------------------------------
                                                             Total   Maximum
                                 Maximum   Time of Max       Flood    Ponded
                        Hours       Rate    Occurrence      Volume     Depth
  Node                 Flooded       LPS   days hr:min    10^6 ltr    Meters
  --------------------------------------------------------------------------
  WS02006112              0.01   1405.86      0  00:00       0.047     0.000
  WS02006242              0.01      0.51      0  02:09       0.000     0.000
  WS02006248              0.01      9.22      0  02:09       0.000     0.000
  WS02006249              0.37     93.61      0  02:09       0.086     0.000
  WS02006252              0.01    223.03      0  01:23       0.000     0.000
  WS02006256              0.60    286.57      0  03:18       0.227     0.000
  YS02001580              0.01     30.06      0  01:36       0.000     0.000
  YS02001586              0.87   1165.59      0  01:52       1.424     0.000
  YS02001596              0.01      0.08      0  01:46       0.000     0.000
  YS02001600              0.01      1.04      0  01:36       0.000     0.000
  YS02001601              1.14   2365.22      0  01:50       3.114     0.000
  YS02001602              1.02     62.46      0  02:24       0.207     0.000
  YS02001605              0.01      0.79      0  02:25       0.000     0.000
  YS02001607              0.01      0.70      0  02:25       0.000     0.000
  YS02001610              0.89    953.94      0  01:53       1.647     0.000
  YS02001616              0.04      2.29      0  01:49       0.000     0.000
  YS02001619              0.26    897.89      0  01:51       0.497     0.000
  YS02001622              0.01      0.15      0  01:46       0.000     0.000
  YS02001625              0.88   1505.07      0  02:00       2.586     0.000
  YS02001629              0.32    610.31      0  01:50       0.348     0.000
  YS02001633              0.01      1.34      0  01:46       0.000     0.000
  YS02001644              0.42   3088.32      0  01:50       2.110     0.000
  YS02001647              0.01      0.80      0  01:46       0.000     0.000
  YS02001649              0.01     31.31      0  01:47       0.000     0.000
  YS02001652              0.01      1.15      0  01:46       0.000     0.000
  YS02001655              0.01      0.98      0  01:46       0.000     0.000
  YS02001754              0.01      0.59      0  01:46       0.000     0.000
  YS02001757              0.01      1.41      0  01:46       0.000     0.000
  YS02001759              0.01      1.58      0  01:46       0.000     0.000
  YS02001762              0.01      0.97      0  02:25       0.000     0.000
  YS02001765              0.01      1.22      0  02:25       0.000     0.000
  YS02001767              0.01      1.09      0  02:25       0.000     0.000
  YS02001770              0.18   1082.04      0  01:50       0.325     0.000
  YS02001774              0.01      0.19      0  01:46       0.000     0.000
  YS02001779              0.38    851.51      0  01:53       0.765     0.000
  YS02001890              0.17    305.44      0  02:13       0.083     0.000
  YS02001907              0.30   1757.32      0  02:14       1.005     0.000
  YS02001918              0.01     84.61      0  02:08       0.001     0.000
  YS02001926              0.01    198.29      0  02:08       0.000     0.000
  YS02001929              0.01    297.50      0  02:08       0.001     0.000
  YS02163601              0.01      1.75      0  02:25       0.000     0.000
  YS02164001              0.01      1.53      0  02:25       0.000     0.000
  
  
  **********************
  Storage Volume Summary
  **********************
  
  --------------------------------------------------------------------------------------------------
                         Average     Avg  Evap Exfil       Maximum     Max    Time of Max    Maximum
                          Volume    Pcnt  Pcnt  Pcnt        Volume    Pcnt     Occurrence    Outflow
  Storage Unit           1000 m3    Full  Loss  Loss       1000 m3    Full    days hr:min        LPS
  --------------------------------------------------------------------------------------------------
  CC-storage               2.511      39     0     0         5.185      81       0  02:32    1766.00
  JK-storage               0.059      20     0     0         0.151      52       0  00:00    2000.00
  
  
  ***********************
  Outfall Loading Summary
  ***********************
  
  -----------------------------------------------------------
                         Flow       Avg       Max       Total
                         Freq      Flow      Flow      Volume
  Outfall Node           Pcnt       LPS       LPS    10^6 ltr
  -----------------------------------------------------------
  CC-1                  51.52    683.00    683.00       5.865
  CC-2                  50.88    683.00    683.00       5.725
  JK-1                   4.82   1000.00   1000.00       0.724
  JK-2                  12.89   1000.00   1000.00       2.386
  WSC                   99.99    221.19    528.11       4.589
  -----------------------------------------------------------
  System                44.02   3587.19    528.11      19.290
  
  
  ********************
  Link Flow Summary
  ********************
  
  -----------------------------------------------------------------------------
                                 Maximum  Time of Max   Maximum    Max/    Max/
                                  |Flow|   Occurrence   |Veloc|    Full    Full
  Link                 Type          LPS  days hr:min     m/sec    Flow   Depth
  -----------------------------------------------------------------------------
  1                    CONDUIT    528.11     0  02:29      2.79    0.18    0.29
  WS02003060WS02003069 CONDUIT    530.96     0  02:27      1.63    0.21    0.33
  WS02003066WSF200     CONDUIT    513.71     0  02:26      2.82    0.09    0.22
  WS02003067WS02003066 CONDUIT    513.49     0  02:26      1.18    0.16    0.41
  WS02003069WS02003072 CONDUIT    529.43     0  02:28      1.35    0.25    0.38
  WS02003072WS02003073 CONDUIT    528.07     0  02:28      1.41    1.14    0.37
  WS02004401WS02004402 CONDUIT   1248.69     0  00:01      2.52    1.50    0.85
  WS02004402WS02004403 CONDUIT    929.44     0  00:01      2.21    1.34    0.88
  WS02004403WS02004404 CONDUIT    877.02     0  00:01      2.01    0.63    0.92
  WS02004404WS02004405 CONDUIT    827.31     0  00:01      2.30    8.11    0.95
  WS02004405WS02004406 CONDUIT    768.45     0  00:02      2.19    1.52    0.95
  WS02004406WS02004407 CONDUIT    526.17     0  02:24      1.03    0.24    0.62
  WS02004407WS02004409 CONDUIT    525.61     0  02:25      2.06    0.19    0.47
  WS02004409WS02004410 CONDUIT    521.39     0  02:25      1.39    0.67    0.66
  WS02004410WS02004411 CONDUIT    518.83     0  02:25      1.32    0.71    0.67
  WS02004411WS02004412 CONDUIT    517.02     0  02:26      1.28    0.73    0.68
  WS02004412WS02004413 CONDUIT    514.63     0  02:26      1.25    0.34    0.76
  WS02004413WS02003067 CONDUIT    513.11     0  02:26      1.08    0.22    0.58
  WS02006109WS02006110 CONDUIT   1446.81     0  00:00      2.88    2.78    1.00
  WS02006110WS02006113 CONDUIT    567.32     0  02:39      1.38    0.52    1.00
  WS02006111WS02006112 CONDUIT   2307.30     0  00:00      9.18    1.10    1.00
  WS02006112WS02006115 CONDUIT    953.54     0  00:00      1.24    0.56    1.00
  WS02006113WS02006111 CONDUIT   1180.41     0  00:00      2.47    1.41    1.00
  WS02006115WS02006116 CONDUIT   1264.47     0  00:00      1.74    1.62    1.00
  WS02006116WS02004401 CONDUIT   1786.04     0  00:00      2.94    2.46    0.83
  WS02006228WS02006109 CONDUIT    869.18     0  00:00      1.91    3.80    1.00
  WS02006229WS02006228 CONDUIT    557.95     0  02:39      1.11    1.85    1.00
  WS02006230WS02006229 CONDUIT    696.39     0  00:00      1.89   15.50    1.00
  WS02006231WS02006230 CONDUIT    572.62     0  02:39      1.91    8.69    1.00
  WS02006232WS02006231 CONDUIT    574.07     0  02:18      1.80    1.20    1.00
  WS02006234WS02006232 CONDUIT    573.44     0  02:18      1.49    1.16    1.00
  WS02006235WS02006234 CONDUIT    569.45     0  02:18      1.48    6.01    1.00
  WS02006238WS02006235 CONDUIT    440.57     0  03:18      1.71    0.98    1.00
  WS02006239WS02006238 CONDUIT    425.05     0  03:19      1.10    1.36    1.00
  WS02006240WS02006239 CONDUIT    422.29     0  02:23      1.15    1.33    1.00
  WS02006242WS02006240 CONDUIT    421.13     0  03:17      1.09    1.67    1.00
  WS02006243WS02006242 CONDUIT    424.75     0  03:17      1.19    0.91    1.00
  WS02006245WS02006243 CONDUIT    425.98     0  03:17      1.34    1.26    1.00
  WS02006247WS02006245 CONDUIT    425.60     0  03:17      1.35    3.37    1.00
  WS02006248WS02006247 CONDUIT    423.98     0  03:17      1.32    0.92    1.00
  WS02006249WS02006248 CONDUIT    424.93     0  03:19      1.38    2.33    1.00
  WS02006251WS02006249 CONDUIT    447.78     0  01:26      1.78    1.29    1.00
  WS02006252WS02006251 CONDUIT    407.06     0  00:11     18.12    1.49    1.00
  WS02006256WS02006235 CONDUIT    286.74     0  00:06      4.12    3.03    1.00
  WSF200WS02003060     CONDUIT    514.40     0  02:27      2.04    0.11    0.27
  YS02001580YS02001583 CONDUIT     77.21     0  01:36      0.58    0.30    1.00
  YS02001583YS02001586 CONDUIT    143.13     0  01:36      0.59    0.22    1.00
  YS02001586YS02001590 CONDUIT    319.49     0  02:25      1.26    0.56    1.00
  YS02001590YS02001593 CONDUIT    318.51     0  01:41      1.13    2.00    1.00
  YS02001593YS02001596 CONDUIT    318.01     0  02:27      1.70    0.50    1.00
  YS02001596YS02001600 CONDUIT    318.76     0  01:46      1.25    0.62    1.00
  YS02001600YS02001601 CONDUIT    318.41     0  02:24      1.13    0.55    1.00
  YS02001601YS02001602 CONDUIT    507.33     0  01:35      1.79    1.83    1.00
  YS02001602YS02001605 CONDUIT    507.99     0  01:35      1.80   10.75    1.00
  YS02001605YS02001607 CONDUIT    507.07     0  01:35      1.79    2.78    1.00
  YS02001607YS02001610 CONDUIT    506.76     0  01:35      0.65    0.48    1.00
  YS02001610YS02001613 CONDUIT    618.22     0  01:53      0.79    0.71    1.00
  YS02001613YS02001616 CONDUIT    618.03     0  01:54      0.79    0.53    1.00
  YS02001616YS02001619 CONDUIT    617.91     0  01:53      0.79    1.07    1.00
  YS02001619YS02001622 CONDUIT   1054.19     0  01:53      1.34    1.55    1.00
  YS02001622YS02001625 CONDUIT   1053.82     0  01:53      1.34    0.56    1.00
  YS02001625YS02001629 CONDUIT    936.65     0  01:39      1.19    0.45    1.00
  YS02001629YS02163301 CONDUIT   1046.88     0  01:50      1.33    1.29    1.00
  YS02001633YS02163601 CONDUIT   1400.99     0  01:39      1.78    1.47    1.00
  YS02001641YS02001644 CONDUIT   1399.72     0  01:39      1.78    4.52    1.00
  YS02001644YS02001647 CONDUIT   1800.61     0  01:39      2.30    1.06    1.00
  YS02001647YS02001649 CONDUIT   1821.21     0  01:40      2.37    0.96    1.00
  YS02001649YS02001757 CONDUIT   2039.95     0  01:39      2.61    1.24    1.00
  YS02001652YS02001649 CONDUIT   1643.12     0  01:50      2.09    0.81    1.00
  YS02001655YS02001652 CONDUIT   1641.14     0  01:50      2.09    0.80    1.00
  YS02001658YS02001655 CONDUIT   1638.71     0  01:50      2.09    0.70    1.00
  YS02001661YS02001658 CONDUIT   1636.90     0  01:50      2.32    0.64    1.00
  YS02001664YS02001661 CONDUIT   1635.91     0  01:50      2.32    0.51    1.00
  YS02001745YS02001748 CONDUIT    966.70     0  01:50      2.14    0.37    1.00
  YS02001748YS02001751 CONDUIT    968.01     0  01:49      1.67    0.49    1.00
  YS02001751YS02001754 CONDUIT    971.17     0  01:49      1.42    0.47    1.00
  YS02001754YS02001757 CONDUIT    973.74     0  01:49      1.24    0.39    1.00
  YS02001757CaochengTiaoxuchi CONDUIT   3486.32     0  01:44      4.45    1.51    1.00
  YS02001759YS02001757 CONDUIT   1492.68     0  01:48      1.90    1.06    1.00
  YS02001762YS02001759 CONDUIT    772.84     0  01:43      0.98    0.89    1.00
  YS02001765YS02001762 CONDUIT    768.73     0  01:44      0.98    0.72    1.00
  YS02001767YS02001765 CONDUIT    769.80     0  01:44      0.98    0.97    1.00
  YS02001770YS02001767 CONDUIT    770.41     0  01:44      0.98    3.05    1.00
  YS02001774YS02001770 CONDUIT    852.35     0  01:53      1.09    0.54    1.00
  YS02001779YS02001774 CONDUIT    851.84     0  01:53      1.08    0.43    1.00
  YS02001783YS02001784 CONDUIT   1164.48     0  02:12      2.32    1.61    1.00
  YS02001784YS02001785 CONDUIT   1164.40     0  02:12      2.32    2.71    1.00
  YS02001786YS02001788 CONDUIT   1164.35     0  02:12      2.48    2.24    0.89
  YS02001788YS02001790 CONDUIT   1177.50     0  02:12      2.72    0.87    0.84
  YS02001790YS02001791 CONDUIT   1282.80     0  02:16      3.41    1.40    0.70
  YS02001791YS02001793 CONDUIT   1244.11     0  02:13      6.79    0.53    0.41
  YS02001793JiankangQianchi CONDUIT   1244.08     0  02:13      2.50    0.10    0.61
  YS02001882YS02001884 CONDUIT     36.57     0  02:04      0.16    0.04    1.00
  YS02001884YS02001887 CONDUIT     67.13     0  02:04      0.12    0.09    1.00
  YS02001887YS02001890 CONDUIT    820.94     0  02:13      1.05    1.40    1.00
  YS02001890YS02001895 CONDUIT    518.42     0  02:16      0.66    0.24    1.00
  YS02001895YS02001898 CONDUIT    517.79     0  02:16      0.66    0.90    1.00
  YS02001898YS02001901 CONDUIT    517.21     0  02:16      0.66    0.33    1.00
  YS02001901YS02001904 CONDUIT    517.70     0  02:16      0.66    0.80    1.00
  YS02001904YS02001907 CONDUIT    519.37     0  02:16      0.66    0.18    1.00
  YS02001907YS02006553 CONDUIT    798.01     0  02:25      0.89    0.94    1.00
  YS02001910YS02001907 CONDUIT   1359.69     0  02:14      1.73    0.77    1.00
  YS02001915YS02001910 CONDUIT   1360.18     0  02:14      1.73    0.68    1.00
  YS02001918YS02001915 CONDUIT    479.63     0  02:14      0.61    0.26    1.00
  YS02001920YS02001918 CONDUIT    479.21     0  02:14      0.64    0.46    1.00
  YS02001923YS02001920 CONDUIT    479.05     0  02:14      0.71    0.22    1.00
  YS02001926YS02001923 CONDUIT    476.84     0  02:14      0.97    0.68    1.00
  YS02001929YS02001926 CONDUIT    475.36     0  02:14      1.12    0.23    1.00
  YS02006553YS02006556 CONDUIT    798.22     0  02:25      1.02    0.68    1.00
  YS02006556YS02006558 CONDUIT    797.19     0  02:26      1.02    0.63    1.00
  YS02006558YS02006561 CONDUIT   1164.55     0  02:12      4.12    2.57    1.00
  YS02006561YS02001783 CONDUIT   1164.34     0  02:12      2.32    0.60    1.00
  YS02163301YS02001633 CONDUIT   1047.64     0  01:50      1.33    0.98    1.00
  YS02163601YS02164001 CONDUIT   1400.58     0  01:39      1.78    1.24    1.00
  YS02164001YS02001641 CONDUIT   1399.76     0  01:39      1.78    1.91    1.00
  CC-R1                PUMP       683.00     0  00:06              1.00
  CC-R2                PUMP       683.00     0  00:06              1.00
  CC-S1                PUMP       200.00     0  00:11              1.00
  CC-S2                PUMP       200.00     0  00:06              1.00
  JK-R1                PUMP      1000.00     0  00:06              1.00
  JK-R2                PUMP      1000.00     0  01:36              1.00
  JK-S                 PUMP       300.00     0  00:06              1.00
  
  
  ***************************
  Flow Classification Summary
  ***************************
  
  -------------------------------------------------------------------------------------
                      Adjusted    ---------- Fraction of Time in Flow Class ---------- 
                       /Actual         Up    Down  Sub   Sup   Up    Down  Norm  Inlet 
  Conduit               Length    Dry  Dry   Dry   Crit  Crit  Crit  Crit  Ltd   Ctrl  
  -------------------------------------------------------------------------------------
  1                       1.00   0.00  0.00  0.00  0.00  1.00  0.00  0.00  0.49  0.00
  WS02003060WS02003069    1.00   0.00  0.00  0.00  0.95  0.05  0.00  0.00  0.71  0.00
  WS02003066WSF200        1.00   0.04  0.00  0.00  0.00  0.96  0.00  0.00  0.92  0.00
  WS02003067WS02003066    1.00   0.02  0.02  0.00  0.96  0.00  0.00  0.00  0.00  0.00
  WS02003069WS02003072    1.00   0.00  0.00  0.00  1.00  0.00  0.00  0.00  0.74  0.00
  WS02003072WS02003073    1.00   0.00  0.00  0.00  0.00  0.00  0.00  1.00  0.00  0.00
  WS02004401WS02004402    1.00   0.00  0.00  0.00  1.00  0.00  0.00  0.00  0.00  0.00
  WS02004402WS02004403    1.00   0.00  0.00  0.00  1.00  0.00  0.00  0.00  0.00  0.00
  WS02004403WS02004404    1.00   0.00  0.00  0.00  1.00  0.00  0.00  0.00  0.00  0.00
  WS02004404WS02004405    1.00   0.00  0.00  0.00  1.00  0.00  0.00  0.00  0.00  0.00
  WS02004405WS02004406    1.00   0.00  0.00  0.00  1.00  0.00  0.00  0.00  0.00  0.00
  WS02004406WS02004407    1.00   0.00  0.00  0.00  1.00  0.00  0.00  0.00  0.00  0.00
  WS02004407WS02004409    1.00   0.00  0.00  0.00  0.99  0.00  0.00  0.00  0.99  0.00
  WS02004409WS02004410    1.00   0.00  0.00  0.00  1.00  0.00  0.00  0.00  0.00  0.00
  WS02004410WS02004411    1.00   0.00  0.00  0.00  1.00  0.00  0.00  0.00  0.00  0.00
  WS02004411WS02004412    1.00   0.00  0.00  0.00  1.00  0.00  0.00  0.00  0.00  0.00
  WS02004412WS02004413    1.00   0.01  0.00  0.00  0.99  0.00  0.00  0.00  0.00  0.00
  WS02004413WS02003067    1.00   0.01  0.01  0.00  0.00  0.00  0.98  0.00  0.00  0.00
  WS02006109WS02006110    1.00   0.00  0.00  0.00  1.00  0.00  0.00  0.00  0.00  0.00
  WS02006110WS02006113    1.00   0.00  0.00  0.00  1.00  0.00  0.00  0.00  0.00  0.00
  WS02006111WS02006112    1.00   0.00  0.00  0.00  1.00  0.00  0.00  0.00  1.00  0.00
  WS02006112WS02006115    1.00   0.00  0.00  0.00  1.00  0.00  0.00  0.00  0.00  0.00
  WS02006113WS02006111    1.00   0.00  0.00  0.00  0.00  1.00  0.00  0.00  0.13  0.00
  WS02006115WS02006116    1.00   0.00  0.00  0.00  1.00  0.00  0.00  0.00  0.00  0.00
  WS02006116WS02004401    1.00   0.00  0.00  0.00  1.00  0.00  0.00  0.00  0.00  0.00
  WS02006228WS02006109    1.00   0.00  0.00  0.00  1.00  0.00  0.00  0.00  0.00  0.00
  WS02006229WS02006228    1.00   0.00  0.00  0.00  1.00  0.00  0.00  0.00  0.00  0.00
  WS02006230WS02006229    1.00   0.00  0.00  0.00  1.00  0.00  0.00  0.00  0.02  0.00
  WS02006231WS02006230    1.00   0.00  0.00  0.00  0.38  0.00  0.62  0.00  0.00  0.00
  WS02006232WS02006231    1.00   0.00  0.00  0.00  0.99  0.00  0.01  0.00  0.00  0.00
  WS02006234WS02006232    1.00   0.00  0.00  0.00  1.00  0.00  0.00  0.00  0.08  0.00
  WS02006235WS02006234    1.00   0.00  0.00  0.00  0.86  0.00  0.14  0.00  0.00  0.00
  WS02006238WS02006235    1.00   0.00  0.00  0.00  1.00  0.00  0.00  0.00  0.00  0.00
  WS02006239WS02006238    1.00   0.00  0.00  0.00  1.00  0.00  0.00  0.00  0.27  0.00
  WS02006240WS02006239    1.00   0.01  0.00  0.00  0.75  0.00  0.00  0.24  0.04  0.00
  WS02006242WS02006240    1.00   0.02  0.00  0.00  0.98  0.00  0.01  0.00  0.00  0.00
  WS02006243WS02006242    1.00   0.02  0.00  0.00  0.97  0.00  0.00  0.01  0.62  0.00
  WS02006245WS02006243    1.00   0.02  0.00  0.00  0.82  0.00  0.00  0.17  0.01  0.00
  WS02006247WS02006245    1.00   0.01  0.00  0.00  0.95  0.00  0.00  0.04  0.00  0.00
  WS02006248WS02006247    1.00   0.01  0.00  0.00  0.96  0.00  0.00  0.03  0.55  0.00
  WS02006249WS02006248    1.00   0.01  0.00  0.00  0.60  0.00  0.39  0.00  0.00  0.00
  WS02006251WS02006249    1.00   0.01  0.00  0.00  0.98  0.01  0.00  0.00  0.57  0.00
  WS02006252WS02006251    1.00   0.01  0.30  0.00  0.07  0.00  0.62  0.00  0.00  0.00
  WS02006256WS02006235    1.00   0.00  0.00  0.00  0.98  0.02  0.00  0.00  0.01  0.00
  WSF200WS02003060        1.00   0.00  0.04  0.00  0.31  0.64  0.00  0.00  0.69  0.00
  YS02001580YS02001583    1.00   0.21  0.40  0.00  0.39  0.00  0.00  0.00  0.64  0.00
  YS02001583YS02001586    1.00   0.30  0.19  0.00  0.51  0.00  0.00  0.00  0.64  0.00
  YS02001586YS02001590    1.00   0.13  0.00  0.00  0.64  0.02  0.00  0.21  0.29  0.00
  YS02001590YS02001593    1.00   0.13  0.00  0.00  0.31  0.00  0.56  0.00  0.00  0.00
  YS02001593YS02001596    1.00   0.13  0.00  0.00  0.35  0.01  0.00  0.51  0.01  0.00
  YS02001596YS02001600    1.00   0.13  0.00  0.00  0.39  0.01  0.00  0.47  0.03  0.00
  YS02001600YS02001601    1.00   0.13  0.00  0.00  0.87  0.00  0.00  0.00  0.58  0.00
  YS02001601YS02001602    1.00   0.13  0.00  0.00  0.87  0.00  0.00  0.00  0.00  0.00
  YS02001602YS02001605    1.00   0.13  0.00  0.00  0.87  0.00  0.00  0.00  0.00  0.00
  YS02001605YS02001607    1.00   0.13  0.00  0.00  0.87  0.00  0.00  0.00  0.00  0.00
  YS02001607YS02001610    1.00   0.13  0.00  0.00  0.87  0.00  0.00  0.00  0.01  0.00
  YS02001610YS02001613    1.00   0.13  0.00  0.00  0.87  0.00  0.00  0.00  0.00  0.00
  YS02001613YS02001616    1.00   0.13  0.00  0.00  0.87  0.00  0.00  0.00  0.00  0.00
  YS02001616YS02001619    1.00   0.13  0.00  0.00  0.87  0.00  0.00  0.00  0.00  0.00
  YS02001619YS02001622    1.00   0.13  0.00  0.00  0.87  0.00  0.00  0.00  0.33  0.00
  YS02001622YS02001625    1.00   0.13  0.00  0.00  0.87  0.00  0.00  0.00  0.02  0.00
  YS02001625YS02001629    1.00   0.13  0.02  0.00  0.37  0.00  0.48  0.00  0.00  0.00
  YS02001629YS02163301    1.00   0.13  0.00  0.00  0.86  0.00  0.00  0.00  0.00  0.00
  YS02001633YS02163601    1.00   0.13  0.00  0.00  0.87  0.00  0.00  0.00  0.01  0.00
  YS02001641YS02001644    1.00   0.13  0.00  0.00  0.87  0.00  0.00  0.00  0.00  0.00
  YS02001644YS02001647    1.00   0.13  0.01  0.00  0.86  0.00  0.00  0.00  0.00  0.00
  YS02001647YS02001649    1.00   0.13  0.01  0.00  0.62  0.24  0.00  0.00  0.58  0.00
  YS02001649YS02001757    1.00   0.00  0.13  0.00  0.57  0.30  0.00  0.00  0.14  0.00
  YS02001652YS02001649    1.00   0.13  0.00  0.00  0.85  0.01  0.00  0.00  0.58  0.00
  YS02001655YS02001652    1.00   0.13  0.00  0.00  0.40  0.01  0.00  0.46  0.04  0.00
  YS02001658YS02001655    1.00   0.13  0.00  0.00  0.67  0.19  0.00  0.00  0.62  0.00
  YS02001661YS02001658    1.00   0.13  0.00  0.00  0.50  0.37  0.00  0.00  0.65  0.00
  YS02001664YS02001661    1.00   0.13  0.00  0.00  0.71  0.16  0.00  0.00  0.82  0.00
  YS02001745YS02001748    1.00   0.13  0.00  0.00  0.27  0.01  0.00  0.60  0.05  0.00
  YS02001748YS02001751    1.00   0.13  0.00  0.00  0.74  0.13  0.00  0.00  0.61  0.00
  YS02001751YS02001754    1.00   0.13  0.00  0.00  0.36  0.01  0.00  0.50  0.03  0.00
  YS02001754YS02001757    1.00   0.00  0.13  0.00  0.87  0.01  0.00  0.00  0.62  0.00
  YS02001757CaochengTiaoxuchi    1.00   0.00  0.00  0.00  0.91  0.09  0.00  0.00  0.72  0.00
  YS02001759YS02001757    1.00   0.00  0.13  0.00  0.86  0.01  0.00  0.00  0.54  0.00
  YS02001762YS02001759    1.00   0.13  0.00  0.00  0.87  0.00  0.00  0.00  0.00  0.00
  YS02001765YS02001762    1.00   0.13  0.00  0.00  0.87  0.00  0.00  0.00  0.58  0.00
  YS02001767YS02001765    1.00   0.13  0.00  0.00  0.87  0.00  0.00  0.00  0.00  0.00
  YS02001770YS02001767    1.00   0.13  0.00  0.00  0.87  0.00  0.00  0.00  0.00  0.00
  YS02001774YS02001770    1.00   0.13  0.00  0.00  0.71  0.00  0.16  0.00  0.01  0.00
  YS02001779YS02001774    1.00   0.13  0.29  0.00  0.58  0.00  0.00  0.00  0.57  0.00
  YS02001783YS02001784    1.00   0.17  0.00  0.00  0.82  0.01  0.00  0.00  0.57  0.00
  YS02001784YS02001785    1.00   0.18  0.00  0.00  0.82  0.00  0.00  0.00  0.42  0.00
  YS02001786YS02001788    1.00   0.18  0.00  0.00  0.53  0.29  0.00  0.00  0.00  0.00
  YS02001788YS02001790    1.00   0.19  0.00  0.00  0.22  0.59  0.00  0.00  0.62  0.00
  YS02001790YS02001791    1.00   0.19  0.00  0.00  0.02  0.79  0.00  0.00  0.15  0.00
  YS02001791YS02001793    1.00   0.20  0.00  0.00  0.00  0.80  0.00  0.00  0.01  0.00
  YS02001793JiankangQianchi    1.00   0.00  0.20  0.00  0.74  0.06  0.00  0.00  0.81  0.00
  YS02001882YS02001884    1.00   0.14  0.00  0.00  0.85  0.00  0.00  0.00  0.00  0.00
  YS02001884YS02001887    1.00   0.13  0.00  0.00  0.86  0.00  0.00  0.00  0.00  0.00
  YS02001887YS02001890    1.00   0.13  0.00  0.00  0.86  0.00  0.01  0.00  0.00  0.00
  YS02001890YS02001895    1.00   0.13  0.02  0.00  0.85  0.00  0.00  0.00  0.00  0.00
  YS02001895YS02001898    1.00   0.15  0.00  0.00  0.81  0.00  0.04  0.00  0.00  0.00
  YS02001898YS02001901    1.00   0.15  0.00  0.00  0.85  0.00  0.00  0.00  0.01  0.00
  YS02001901YS02001904    1.00   0.15  0.01  0.00  0.84  0.00  0.00  0.00  0.00  0.00
  YS02001904YS02001907    1.00   0.13  0.03  0.00  0.84  0.00  0.00  0.00  0.00  0.00
  YS02001907YS02006553    1.00   0.13  0.01  0.00  0.86  0.00  0.00  0.00  0.01  0.00
  YS02001910YS02001907    1.00   0.13  0.00  0.00  0.86  0.00  0.00  0.01  0.02  0.00
  YS02001915YS02001910    1.00   0.13  0.00  0.00  0.85  0.02  0.00  0.00  0.01  0.00
  YS02001918YS02001915    1.00   0.13  0.02  0.00  0.85  0.00  0.00  0.00  0.72  0.00
  YS02001920YS02001918    1.00   0.14  0.01  0.00  0.85  0.00  0.00  0.00  0.00  0.00
  YS02001923YS02001920    1.00   0.14  0.00  0.00  0.86  0.00  0.00  0.00  0.78  0.00
  YS02001926YS02001923    1.00   0.13  0.01  0.00  0.09  0.00  0.78  0.00  0.00  0.00
  YS02001929YS02001926    1.00   0.13  0.00  0.00  0.87  0.00  0.00  0.00  0.82  0.00
  YS02006553YS02006556    1.00   0.13  0.00  0.00  0.87  0.00  0.00  0.00  0.01  0.00
  YS02006556YS02006558    1.00   0.13  0.00  0.00  0.87  0.00  0.00  0.00  0.00  0.00
  YS02006558YS02006561    1.00   0.17  0.00  0.00  0.08  0.75  0.00  0.00  0.16  0.00
  YS02006561YS02001783    1.00   0.17  0.00  0.00  0.24  0.59  0.00  0.00  0.69  0.00
  YS02163301YS02001633    1.00   0.13  0.01  0.00  0.87  0.00  0.00  0.00  0.00  0.00
  YS02163601YS02164001    1.00   0.13  0.00  0.00  0.87  0.00  0.00  0.00  0.01  0.00
  YS02164001YS02001641    1.00   0.13  0.00  0.00  0.87  0.00  0.00  0.00  0.00  0.00
  
  
  *************************
  Conduit Surcharge Summary
  *************************
  
  ----------------------------------------------------------------------------
                                                           Hours        Hours 
                         --------- Hours Full --------   Above Full   Capacity
  Conduit                Both Ends  Upstream  Dnstream   Normal Flow   Limited
  ----------------------------------------------------------------------------
  WS02003072WS02003073        0.01      0.01      0.01      0.53         0.01
  WS02004401WS02004402        0.01      0.01      0.01      0.01         0.01
  WS02004402WS02004403        0.01      0.01      0.01      0.02         0.01
  WS02004404WS02004405        0.01      0.01      0.01      2.86         0.01
  WS02004405WS02004406        0.01      0.01      0.01      0.14         0.01
  WS02006109WS02006110        0.28      0.28      1.94      0.34         0.01
  WS02006110WS02006113        0.01      0.01      1.93      0.01         0.01
  WS02006111WS02006112        0.01      0.01      2.06      0.01         0.01
  WS02006112WS02006115        0.01      0.01      0.21      0.01         0.01
  WS02006113WS02006111        0.01      0.01      0.01      0.01         0.01
  WS02006115WS02006116        0.01      0.01      0.01      0.01         0.01
  WS02006116WS02004401        0.01      0.01      0.01      0.02         0.01
  WS02006228WS02006109        1.90      1.93      1.91      2.21         1.90
  WS02006229WS02006228        1.89      1.90      1.89      2.03         1.87
  WS02006230WS02006229        1.95      2.00      1.97      3.16         1.95
  WS02006231WS02006230        0.28      0.28      0.39      2.79         0.01
  WS02006232WS02006231        0.35      0.35      1.93      0.42         0.01
  WS02006234WS02006232        1.85      1.85      1.93      0.39         0.43
  WS02006235WS02006234        0.66      0.67      1.87      2.62         0.02
  WS02006238WS02006235        1.89      1.89      1.93      0.01         0.01
  WS02006239WS02006238        1.91      1.92      1.91      1.95         1.76
  WS02006240WS02006239        1.87      1.90      1.88      1.94         1.70
  WS02006242WS02006240        1.88      1.88      1.92      2.06         0.01
  WS02006243WS02006242        1.90      1.90      1.92      0.01         0.05
  WS02006245WS02006243        1.88      1.89      1.89      1.67         1.59
  WS02006247WS02006245        1.88      1.89      1.88      2.47         1.87
  WS02006248WS02006247        1.88      1.88      1.89      0.01         0.06
  WS02006249WS02006248        1.88      1.88      1.88      2.37         0.01
  WS02006251WS02006249        1.88      1.88      1.88      1.99         1.78
  WS02006252WS02006251        2.08      2.08      2.14      2.08         0.01
  WS02006256WS02006235        2.59      2.69      5.68      0.61         0.05
  YS02001580YS02001583        1.04      1.04      1.12      0.01         0.01
  YS02001583YS02001586        1.06      1.06      1.23      0.01         0.01
  YS02001586YS02001590        1.24      1.24      1.33      0.01         0.01
  YS02001590YS02001593        1.34      1.34      1.36      1.39         0.01
  YS02001593YS02001596        1.35      1.35      1.49      0.01         0.01
  YS02001596YS02001600        1.54      1.54      1.61      0.01         0.01
  YS02001600YS02001601        1.65      1.65      1.83      0.01         0.01
  YS02001601YS02001602        1.77      1.77      1.86      1.61         0.01
  YS02001602YS02001605        1.73      1.73      1.77      2.42         0.01
  YS02001605YS02001607        1.70      1.73      1.71      1.79         1.69
  YS02001607YS02001610        1.36      1.36      1.39      0.01         0.01
  YS02001610YS02001613        1.35      1.35      1.39      0.01         0.01
  YS02001613YS02001616        1.30      1.30      1.35      0.01         0.01
  YS02001616YS02001619        1.28      1.28      1.30      0.24         0.23
  YS02001619YS02001622        1.28      1.28      1.28      1.25         1.12
  YS02001622YS02001625        1.28      1.28      1.49      0.01         0.01
  YS02001625YS02001629        1.22      1.22      1.49      0.01         0.01
  YS02001629YS02163301        1.49      1.49      1.50      0.19         0.15
  YS02001633YS02163601        1.52      1.52      1.55      0.27         0.31
  YS02001641YS02001644        1.46      1.48      1.46      1.88         1.44
  YS02001644YS02001647        1.20      1.20      1.46      0.04         0.01
  YS02001647YS02001649        1.20      1.20      1.37      0.01         0.01
  YS02001649YS02001757        1.36      1.37      1.42      0.13         0.06
  YS02001652YS02001649        1.15      1.15      1.37      0.01         0.01
  YS02001655YS02001652        0.89      0.89      1.12      0.01         0.01
  YS02001658YS02001655        0.49      0.49      0.89      0.01         0.01
  YS02001661YS02001658        0.24      0.24      0.49      0.01         0.01
  YS02001664YS02001661        0.06      0.06      0.29      0.01         0.01
  YS02001745YS02001748        0.04      0.04      0.40      0.01         0.01
  YS02001748YS02001751        0.44      0.44      0.70      0.01         0.01
  YS02001751YS02001754        0.70      0.70      1.02      0.01         0.01
  YS02001754YS02001757        1.08      1.08      1.42      0.01         0.01
  YS02001757CaochengTiaoxuchi        1.34      1.42      1.79      0.59         0.47
  YS02001759YS02001757        1.35      1.35      1.42      0.09         0.12
  YS02001762YS02001759        1.32      1.32      1.35      0.01         0.02
  YS02001765YS02001762        1.26      1.26      1.32      0.01         0.01
  YS02001767YS02001765        1.21      1.21      1.26      0.01         0.02
  YS02001770YS02001767        1.21      1.21      1.21      0.77         0.75
  YS02001774YS02001770        1.17      1.17      1.30      0.01         0.01
  YS02001779YS02001774        0.99      0.99      1.30      0.01         0.01
  YS02001783YS02001784        0.46      0.48      0.46      0.63         0.46
  YS02001784YS02001785        0.35      0.46      0.35      0.86         0.35
  YS02001786YS02001788        0.01      0.35      0.01      0.74         0.01
  YS02001790YS02001791        0.01      0.01      0.01      0.44         0.01
  YS02001793JiankangQianchi        0.01      0.01      2.34      0.01         0.01
  YS02001882YS02001884        0.43      0.43      0.44      0.01         0.01
  YS02001884YS02001887        0.46      0.46      0.47      0.01         0.01
  YS02001887YS02001890        0.49      0.49      0.50      0.11         0.01
  YS02001890YS02001895        0.42      0.42      0.51      0.01         0.01
  YS02001895YS02001898        0.41      0.41      0.42      0.01         0.01
  YS02001898YS02001901        0.42      0.42      0.46      0.01         0.01
  YS02001901YS02001904        0.45      0.45      0.46      0.01         0.01
  YS02001904YS02001907        0.45      0.45      0.72      0.01         0.01
  YS02001907YS02006553        0.87      0.87      0.94      0.01         0.01
  YS02001910YS02001907        0.51      0.51      0.70      0.01         0.01
  YS02001915YS02001910        0.43      0.43      0.51      0.01         0.01
  YS02001918YS02001915        0.35      0.35      0.43      0.01         0.01
  YS02001920YS02001918        0.35      0.35      0.35      0.01         0.01
  YS02001923YS02001920        0.30      0.30      0.35      0.01         0.01
  YS02001926YS02001923        0.08      0.08      0.11      0.01         0.01
  YS02001929YS02001926        0.01      0.01      0.11      0.01         0.01
  YS02006553YS02006556        0.61      0.61      0.72      0.01         0.01
  YS02006556YS02006558        0.66      0.66      0.74      0.01         0.01
  YS02006558YS02006561        0.37      0.59      0.37      0.81         0.37
  YS02006561YS02001783        0.30      0.30      0.48      0.01         0.01
  YS02163301YS02001633        1.50      1.50      1.53      0.01         0.01
  YS02163601YS02164001        1.48      1.48      1.55      0.10         0.01
  YS02164001YS02001641        1.48      1.48      1.48      1.04         0.96
  
  
  ***************
  Pumping Summary
  ***************
  
  ---------------------------------------------------------------------------------------------------------
                                                  Min       Avg       Max     Total     Power    % Time Off
                        Percent   Number of      Flow      Flow      Flow    Volume     Usage    Pump Curve
  Pump                 Utilized   Start-Ups       LPS       LPS       LPS  10^6 ltr     Kw-hr    Low   High
  ---------------------------------------------------------------------------------------------------------
  CC-R1                   30.04          50      0.00    683.00    683.00     5.909    110.41    0.0   25.4
  CC-R2                   29.55          79      0.00    683.00    683.00     5.813    108.23    0.0   28.4
  CC-S1                   28.92          80      0.00    200.00    200.00     1.666      8.77    0.0    0.0
  CC-S2                   29.07          21      0.00    200.00    200.00     1.674      8.78    0.0    0.0
  JK-R1                    2.52          12      0.00   1000.00   1000.00     0.727      5.44    0.0    0.0
  JK-R2                    8.29         103      0.00   1000.00   1000.00     2.387     15.20    0.0    0.0
  JK-S                     7.52         105      0.00    300.00    300.00     0.650     12.74    0.0    0.0
  

  Analysis begun on:  Wed Sep  6 15:59:21 2023
  Analysis ended on:  Wed Sep  6 15:59:57 2023
  Total elapsed time: 00:00:36