
  OWA STORM WATER MANAGEMENT MODEL - VERSION v5.1.14 (OWA 2022-07-31)
  --------------------------------------------------------------

  WARNING 04: minimum elevation drop used for Conduit WS02004404WS02004405
  WARNING 03: negative offset ignored for Link YS02001904YS02001907
  
  *********************************************************
  NOTE: The summary statistics displayed in this report are
  based on results found at every computational time step,  
  not just on results from each reporting time step.
  *********************************************************
  
  ****************
  Analysis Options
  ****************
  Flow Units ............... LPS
  Process Models:
    Rainfall/Runoff ........ YES
    RDII ................... NO
    Snowmelt ............... NO
    Groundwater ............ NO
    Flow Routing ........... YES
    Ponding Allowed ........ NO
    Water Quality .......... NO
  Infiltration Method ...... HORTON
  Flow Routing Method ...... DYNWAVE
  Surcharge Method ......... EXTRAN
  Starting Date ............ 08/28/2015 08:00:00
  Ending Date .............. 08/28/2015 16:00:00
  Antecedent Dry Days ...... 8.0
  Report Time Step ......... 00:01:00
  Wet Time Step ............ 00:01:00
  Dry Time Step ............ 00:01:00
  Routing Time Step ........ 30.00 sec
  Variable Time Step ....... YES
  Maximum Trials ........... 8
  Number of Threads ........ 1
  Head Tolerance ........... 0.001500 m
  
  
  **************************        Volume         Depth
  Runoff Quantity Continuity     hectare-m            mm
  **************************     ---------       -------
  Initial LID Storage ......         0.072         1.184
  Total Precipitation ......         4.271        70.502
  Evaporation Loss .........         0.000         0.000
  Infiltration Loss ........         0.207         3.410
  Surface Runoff ...........         3.298        54.444
  Final Storage ............         0.840        13.859
  Continuity Error (%) .....        -0.037
  
  
  **************************        Volume        Volume
  Flow Routing Continuity        hectare-m      10^6 ltr
  **************************     ---------     ---------
  Dry Weather Inflow .......         0.630         6.296
  Wet Weather Inflow .......         3.298        32.981
  Groundwater Inflow .......         0.000         0.000
  RDII Inflow ..............         0.000         0.000
  External Inflow ..........         0.105         1.045
  External Outflow .........         2.516        25.156
  Flooding Loss ............         1.489        14.886
  Evaporation Loss .........         0.000         0.000
  Exfiltration Loss ........         0.000         0.000
  Initial Stored Volume ....         0.303         3.031
  Final Stored Volume ......         0.339         3.394
  Continuity Error (%) .....        -0.193
  
  
  *************************
  Highest Continuity Errors
  *************************
  Node YS02001884 (4.94%)
  Node YS02001583 (-4.51%)
  Node HS02004842 (1.70%)
  
  
  ***************************
  Time-Step Critical Elements
  ***************************
  Link WS02006252WS02006251 (76.67%)
  Link WS02006238WS02006235 (6.66%)
  Link WS02006280WS02006229 (6.50%)
  Link YS02001791YS02001793 (2.66%)
  Link WS02003066WSF200 (1.57%)
  
  
  ********************************
  Highest Flow Instability Indexes
  ********************************
  Link WS02006113WS02006111 (37)
  Link WS02006111WS02006112 (17)
  Link WS02006256WS02006235 (13)
  Link WS02006238WS02006235 (13)
  Link WS02004404WS02004405 (12)
  
  
  *************************
  Routing Time Step Summary
  *************************
  Minimum Time Step           :     0.01 sec
  Average Time Step           :     1.27 sec
  Maximum Time Step           :     6.46 sec
  Percent in Steady State     :     0.00
  Average Iterations per Step :     2.82
  Percent Not Converging      :     7.50
  
  
  ***************************
  Subcatchment Runoff Summary
  ***************************
  
  ------------------------------------------------------------------------------------------------------------------------------
                            Total      Total      Total      Total     Imperv       Perv      Total       Total     Peak  Runoff
                           Precip      Runon       Evap      Infil     Runoff     Runoff     Runoff      Runoff   Runoff   Coeff
  Subcatchment                 mm         mm         mm         mm         mm         mm         mm    10^6 ltr      LPS
  ------------------------------------------------------------------------------------------------------------------------------
  sub0                      70.50       0.00       0.00       1.01      64.32       3.92      68.24        0.06    39.45   0.968
  sub1                      70.50       0.00       0.00       1.54      55.13       5.42      60.54        0.40   246.63   0.859
  sub10                     70.50       0.00       0.00       0.98      51.66       3.60      55.26        0.61   385.66   0.784
  sub11                     70.50       0.00       0.00       0.90      48.01       3.36      51.37        0.60   396.31   0.729
  sub12                     70.50       0.00       0.00       1.57      48.81       5.87      54.68        0.48   337.92   0.776
  sub14                     70.50       0.00       0.00       0.97      45.47       3.61      49.08        0.47   306.42   0.696
  sub15                     70.50       0.00       0.00       4.40      40.88      13.47      54.35        0.93   554.31   0.771
  sub16                     70.50       0.00       0.00       4.68      39.87      15.35      55.22        0.58   371.91   0.783
  sub17                     70.50       0.00       0.00       5.01      44.01      16.11      60.11        0.52   324.62   0.853
  sub2                      70.50       0.00       0.00       6.95      40.30      17.21      57.51        0.54   264.56   0.816
  sub22                     70.50       0.00       0.00       7.80      38.16      21.56      59.72        3.77  2058.63   0.847
  sub23                     70.50       0.00       0.00       5.87      39.29      17.67      56.96        2.72  1609.56   0.808
  sub3                      70.50       0.00       0.00       7.45      39.91      16.49      56.40        1.27   569.50   0.800
  sub4                      70.50       0.00       0.00       1.67      54.31       5.19      59.50        1.24   610.37   0.844
  sub5                      70.50       0.00       0.00       0.87      53.33       3.22      56.55        0.64   398.06   0.802
  sub60                     70.50       0.00       0.00       1.40      46.96       5.13      52.09        0.68   458.20   0.739
  sub61                     70.50       0.00       0.00       2.15      46.92       7.65      54.57        1.00   668.38   0.774
  sub62                     70.50       0.00       0.00       0.95      50.02       3.49      53.50        1.47   922.49   0.759
  sub63                     70.50       0.00       0.00       3.92      40.18      12.82      53.00        1.20   764.73   0.752
  sub64                     70.50       0.00       0.00       1.88      45.76       6.36      52.11        1.25   755.72   0.739
  sub65                     70.50       0.00       0.00       1.73      49.39       5.80      55.19        1.52   882.04   0.783
  sub66                     70.50       0.00       0.00       4.57      38.86      11.64      50.50        2.35  1156.29   0.716
  sub67                     70.50       0.00       0.00       0.94      51.28       3.60      54.88        1.02   713.68   0.778
  sub68                     70.50       0.00       0.00       1.65      45.29       5.87      51.16        1.41   916.45   0.726
  sub69                     70.50       0.00       0.00       1.51      47.41       6.87      54.28        2.01  1140.49   0.770
  sub7                      70.50       0.00       0.00       1.03      48.73       3.88      52.62        0.18   119.85   0.746
  sub70                     70.50       0.00       0.00       5.06      37.99      14.57      52.55        1.52   666.86   0.745
  sub71                     70.50       0.00       0.00       0.88      45.44       3.16      48.59        1.27   762.91   0.689
  sub72                     70.50       0.00       0.00       0.84      49.08       2.94      52.02        0.72   394.07   0.738
  sub8                      70.50       0.00       0.00       1.01      47.36       3.77      51.13        0.33   215.09   0.725
  sub9                      70.50       0.00       0.00       0.98      45.91       3.65      49.56        0.24   156.77   0.703
  

  ***********************
  LID Performance Summary
  ***********************

  --------------------------------------------------------------------------------------------------------------------
                                         Total      Evap     Infil   Surface    Drain    Initial     Final  Continuity
                                        Inflow      Loss      Loss   Outflow   Outflow   Storage   Storage       Error
  Subcatchment      LID Control             mm        mm        mm        mm        mm        mm        mm           %
  --------------------------------------------------------------------------------------------------------------------
  sub1              GreenRoof            70.50      0.00      0.00      0.00      0.00      7.05     77.63       -0.11
  sub10             GreenRoof            70.50      0.00      0.00      0.00      0.00      7.05     77.63       -0.11
  sub11             GreenRoof            70.50      0.00      0.00      0.00      0.00      7.05     77.63       -0.11
  sub12             GreenRoof            70.50      0.00      0.00      0.00      0.00      7.05     77.63       -0.11
  sub14             GreenRoof            70.50      0.00      0.00      0.00      0.00      7.05     77.63       -0.11
  sub15             GreenRoof            70.50      0.00      0.00      0.00      0.00      7.05     77.63       -0.11
  sub16             GreenRoof            70.50      0.00      0.00      0.00      0.00      7.05     77.63       -0.11
  sub17             GreenRoof            70.50      0.00      0.00      0.00      0.00      7.05     77.63       -0.11
  sub2              GreenRoof            70.50      0.00      0.00      0.00      0.00      7.05     77.63       -0.11
  sub22             GreenRoof            70.50      0.00      0.00      0.00      0.00      7.05     77.63       -0.11
  sub23             GreenRoof            70.50      0.00      0.00      0.00      0.00      7.05     77.63       -0.11
  sub3              GreenRoof            70.50      0.00      0.00      0.00      0.00      7.05     77.63       -0.11
  sub4              GreenRoof            70.50      0.00      0.00      0.00      0.00      7.05     77.63       -0.11
  sub5              GreenRoof            70.50      0.00      0.00      0.00      0.00      7.05     77.63       -0.11
  sub60             GreenRoof            70.50      0.00      0.00      0.00      0.00      7.05     77.63       -0.11
  sub61             GreenRoof            70.50      0.00      0.00      0.00      0.00      7.05     77.63       -0.11
  sub62             GreenRoof            70.50      0.00      0.00      0.00      0.00      7.05     77.63       -0.11
  sub63             GreenRoof            70.50      0.00      0.00      0.00      0.00      7.05     77.63       -0.11
  sub64             GreenRoof            70.50      0.00      0.00      0.00      0.00      7.05     77.63       -0.11
  sub65             GreenRoof            70.50      0.00      0.00      0.00      0.00      7.05     77.63       -0.11
  sub66             GreenRoof            70.50      0.00      0.00      0.00      0.00      7.05     77.63       -0.11
  sub67             GreenRoof            70.50      0.00      0.00      0.00      0.00      7.05     77.63       -0.11
  sub68             GreenRoof            70.50      0.00      0.00      0.00      0.00      7.05     77.63       -0.11
  sub69             GreenRoof            70.50      0.00      0.00      0.00      0.00      7.05     77.63       -0.11
  sub7              GreenRoof            70.50      0.00      0.00      0.00      0.00      7.05     77.63       -0.11
  sub70             GreenRoof            70.50      0.00      0.00      0.00      0.00      7.05     77.63       -0.11
  sub71             GreenRoof            70.50      0.00      0.00      0.00      0.00      7.05     77.63       -0.11
  sub72             GreenRoof            70.50      0.00      0.00      0.00      0.00      7.05     77.63       -0.11
  sub8              GreenRoof            70.50      0.00      0.00      0.00      0.00      7.05     77.63       -0.11
  sub9              GreenRoof            70.50      0.00      0.00      0.00      0.00      7.05     77.63       -0.11
  
  ******************
  Node Depth Summary
  ******************
  
  ---------------------------------------------------------------------------------
                                 Average  Maximum  Maximum  Time of Max    Reported
                                   Depth    Depth      HGL   Occurrence   Max Depth
  Node                 Type       Meters   Meters   Meters  days hr:min      Meters
  ---------------------------------------------------------------------------------
  HS02004478           JUNCTION     0.14     1.62    10.85     0  01:57        1.58
  HS02004479           JUNCTION     0.20     1.72    10.93     0  01:57        1.67
  HS02004480           JUNCTION     0.17     1.71    10.95     0  01:57        1.63
  HS02004770           JUNCTION     0.19     1.42    11.25     0  01:53        1.42
  HS02004777           JUNCTION     0.22     1.48    11.28     0  01:54        1.46
  HS02004785           JUNCTION     0.11     1.49    11.39     0  01:54        1.35
  HS02004788           JUNCTION     0.09     1.42    11.32     0  01:54        1.36
  HS02004792           JUNCTION     0.12     1.60    11.12     0  01:54        1.60
  HS02004799           JUNCTION     0.22     1.76    10.97     0  01:57        1.76
  HS02004802           JUNCTION     0.24     1.82    10.95     0  01:57        1.79
  HS02004807           JUNCTION     0.21     1.92    11.09     0  01:57        1.92
  HS02004817           JUNCTION     0.52     2.43    11.27     0  01:57        2.40
  HS02004824           JUNCTION     0.10     2.00    11.41     0  01:57        2.00
  HS02004830           JUNCTION     0.11     2.01    11.48     0  01:57        1.97
  HS02004837           JUNCTION     0.09     1.96    11.54     0  01:57        1.90
  HS02004842           JUNCTION     0.39     2.22    11.49     0  01:57        2.22
  HS02004848           JUNCTION     0.07     2.02    11.62     0  01:57        1.91
  HS02004852           JUNCTION     0.07     2.12    11.63     0  01:57        1.95
  HS02004856           JUNCTION     0.13     2.07    11.50     0  01:57        2.01
  HS02004862           JUNCTION     0.08     2.00    11.38     0  01:57        1.99
  HS02004870           JUNCTION     0.08     2.10    11.39     0  01:57        1.97
  HS02004876           JUNCTION     0.11     2.04    11.07     0  02:01        2.04
  HS02004881           JUNCTION     0.06     2.03    11.06     0  01:57        1.77
  HS02004901           JUNCTION     0.20     1.42    11.24     0  01:53        1.42
  WS02001211           JUNCTION     0.63     0.82     5.65     0  02:05        0.82
  WS02001212           JUNCTION     0.37     0.58     5.64     0  02:05        0.58
  WS02001213           JUNCTION     0.59     0.87     5.63     0  02:05        0.87
  WS02003059           JUNCTION     0.65     0.94     5.63     0  02:05        0.94
  WS02003060           JUNCTION     0.37     0.69     5.62     0  02:04        0.69
  WS02003066           JUNCTION     0.22     0.46     6.01     0  02:02        0.46
  WS02003067           JUNCTION     0.54     0.89     6.21     0  02:01        0.89
  WS02003069           JUNCTION     0.41     0.78     5.37     0  02:05        0.78
  WS02003072           JUNCTION     0.48     0.81     5.19     0  02:05        0.81
  WS02003073           JUNCTION     0.29     0.52     4.58     0  02:04        0.52
  WS02004138           JUNCTION     0.13     0.14     7.39     0  00:31        0.14
  WS02004139           JUNCTION     0.57     0.75     5.66     0  02:05        0.75
  WS02004401           JUNCTION     0.70     1.92     7.92     0  02:01        1.90
  WS02004402           JUNCTION     0.73     1.85     7.81     0  02:01        1.84
  WS02004403           JUNCTION     0.74     1.77     7.70     0  02:01        1.77
  WS02004404           JUNCTION     0.81     1.77     7.62     0  02:01        1.77
  WS02004405           JUNCTION     0.80     1.73     7.58     0  02:01        1.72
  WS02004406           JUNCTION     0.80     1.61     7.44     0  02:01        1.59
  WS02004407           JUNCTION     0.23     0.95     7.27     0  02:01        0.95
  WS02004409           JUNCTION     0.49     1.40     7.17     0  02:01        1.40
  WS02004410           JUNCTION     0.50     1.31     7.03     0  02:02        1.30
  WS02004411           JUNCTION     0.51     1.22     6.90     0  02:01        1.21
  WS02004412           JUNCTION     0.52     1.11     6.75     0  02:02        1.11
  WS02004413           JUNCTION     0.67     1.15     6.62     0  02:01        1.15
  WS02006109           JUNCTION     0.84     2.64     9.26     0  01:54        2.64
  WS02006110           JUNCTION     0.81     2.41     9.00     0  02:01        2.41
  WS02006111           JUNCTION     0.32     1.81     8.52     0  02:01        1.81
  WS02006112           JUNCTION     0.89     2.48     8.36     0  02:01        2.48
  WS02006113           JUNCTION     0.41     1.87     8.76     0  02:01        1.87
  WS02006115           JUNCTION     0.61     2.04     8.18     0  02:01        2.04
  WS02006116           JUNCTION     0.68     2.01     8.05     0  02:01        2.01
  WS02006228           JUNCTION     0.86     3.03     9.68     0  01:57        3.02
  WS02006229           JUNCTION     0.85     3.24     9.94     0  01:57        3.22
  WS02006230           JUNCTION     0.80     2.65     9.39     0  01:51        2.65
  WS02006231           JUNCTION     0.57     2.19     9.31     0  02:27        2.19
  WS02006232           JUNCTION     0.68     2.18     9.22     0  01:51        2.18
  WS02006234           JUNCTION     0.57     1.96     9.12     0  01:49        1.96
  WS02006235           JUNCTION     0.58     2.00     9.16     0  03:05        1.93
  WS02006238           JUNCTION     0.61     2.04     9.18     0  03:05        1.93
  WS02006239           JUNCTION     0.56     2.03     9.24     0  03:05        1.79
  WS02006240           JUNCTION     0.52     2.07     9.36     0  03:05        1.63
  WS02006242           JUNCTION     0.57     1.55     8.82     0  01:45        1.55
  WS02006243           JUNCTION     0.46     1.39     8.81     0  03:05        1.38
  WS02006245           JUNCTION     0.45     1.34     8.82     0  03:05        1.27
  WS02006247           JUNCTION     0.47     1.28     8.78     0  03:05        1.23
  WS02006248           JUNCTION     0.42     1.10     8.69     0  01:43        1.10
  WS02006249           JUNCTION     0.45     1.09     8.69     0  01:43        1.09
  WS02006251           JUNCTION     0.48     2.21     9.88     0  01:57        2.13
  WS02006252           JUNCTION     0.36     1.50     9.74     0  00:00        1.50
  WS02006253           JUNCTION     0.53     3.28    10.92     0  01:57        3.04
  WS02006256           JUNCTION     0.83     2.35     9.28     0  00:00        2.35
  WS02006280           JUNCTION     0.18     1.77    10.04     0  01:57        1.74
  WS02006284           JUNCTION     0.46     1.99    10.39     0  01:57        1.94
  WS02006287           JUNCTION     0.19     1.78    10.74     0  01:57        1.73
  WSF200               JUNCTION     0.21     0.52     5.76     0  02:02        0.52
  YS02001580           JUNCTION     0.05     1.05     9.59     0  01:54        0.77
  YS02001583           JUNCTION     0.08     1.03     9.53     0  01:54        0.82
  YS02001586           JUNCTION     0.12     1.13     9.30     0  01:54        1.13
  YS02001590           JUNCTION     0.19     1.38     9.24     0  01:54        1.37
  YS02001593           JUNCTION     0.14     1.30     9.16     0  01:54        1.29
  YS02001596           JUNCTION     0.21     1.66     9.08     0  01:54        1.65
  YS02001600           JUNCTION     0.27     1.86     8.99     0  02:01        1.86
  YS02001601           JUNCTION     0.45     2.06     8.90     0  01:53        2.06
  YS02001602           JUNCTION     0.38     1.87     8.77     0  01:54        1.87
  YS02001605           JUNCTION     0.36     1.78     8.68     0  02:01        1.78
  YS02001607           JUNCTION     0.38     1.65     8.49     0  02:01        1.65
  YS02001610           JUNCTION     0.42     1.68     8.48     0  01:56        1.68
  YS02001613           JUNCTION     0.38     1.67     8.51     0  02:01        1.67
  YS02001616           JUNCTION     0.32     1.60     8.52     0  02:01        1.60
  YS02001619           JUNCTION     0.30     1.61     8.54     0  02:01        1.61
  YS02001622           JUNCTION     0.30     1.57     8.48     0  02:01        1.57
  YS02001625           JUNCTION     0.56     1.78     8.38     0  01:56        1.78
  YS02001629           JUNCTION     0.45     1.85     8.40     0  01:58        1.85
  YS02001633           JUNCTION     0.53     2.03     8.48     0  01:59        2.03
  YS02001641           JUNCTION     0.53     1.96     8.40     0  01:59        1.96
  YS02001644           JUNCTION     0.53     1.92     8.35     0  01:59        1.92
  YS02001647           JUNCTION     0.35     1.84     8.45     0  01:59        1.84
  YS02001649           JUNCTION     0.45     2.05     8.44     0  01:59        2.05
  YS02001652           JUNCTION     0.33     2.16     8.76     0  01:59        2.16
  YS02001655           JUNCTION     0.24     1.79     8.64     0  01:59        1.79
  YS02001658           JUNCTION     0.16     1.64     8.78     0  01:58        1.32
  YS02001661           JUNCTION     0.15     1.42     8.82     0  01:59        1.12
  YS02001664           JUNCTION     0.03     0.63     8.55     0  02:00        0.62
  YS02001745           JUNCTION     0.07     0.83     8.35     0  01:59        0.76
  YS02001748           JUNCTION     0.17     1.70     8.78     0  01:59        1.20
  YS02001751           JUNCTION     0.22     1.69     8.57     0  01:59        1.38
  YS02001754           JUNCTION     0.32     1.76     8.37     0  01:59        1.64
  YS02001757           JUNCTION     0.52     2.02     8.28     0  01:59        1.97
  YS02001759           JUNCTION     0.45     1.99     8.36     0  01:59        1.97
  YS02001762           JUNCTION     0.43     1.98     8.38     0  01:59        1.95
  YS02001765           JUNCTION     0.41     1.95     8.40     0  01:59        1.92
  YS02001767           JUNCTION     0.39     1.92     8.41     0  01:59        1.90
  YS02001770           JUNCTION     0.39     1.95     8.44     0  01:59        1.93
  YS02001774           JUNCTION     0.46     2.00     8.42     0  01:59        1.99
  YS02001779           JUNCTION     0.29     1.68     8.37     0  01:57        1.68
  YS02001783           JUNCTION     0.15     1.65     7.79     0  02:15        1.46
  YS02001784           JUNCTION     0.17     1.63     7.69     0  02:15        1.41
  YS02001786           JUNCTION     0.15     1.53     7.56     0  02:15        1.25
  YS02001788           JUNCTION     0.11     1.43     7.41     0  02:15        1.13
  YS02001790           JUNCTION     0.13     1.53     7.18     0  02:15        1.29
  YS02001791           JUNCTION     0.09     1.33     6.80     0  02:15        1.27
  YS02001793           JUNCTION     0.06     1.80     6.63     0  02:15        1.80
  YS02001882           JUNCTION     0.20     1.76     8.47     0  01:58        1.76
  YS02001884           JUNCTION     0.29     1.84     8.45     0  01:58        1.84
  YS02001887           JUNCTION     0.37     1.87     8.41     0  01:58        1.87
  YS02001890           JUNCTION     0.40     1.81     8.32     0  01:57        1.81
  YS02001895           JUNCTION     0.17     1.58     8.33     0  01:58        1.58
  YS02001898           JUNCTION     0.18     1.60     8.33     0  01:58        1.60
  YS02001901           JUNCTION     0.29     1.71     8.32     0  01:58        1.71
  YS02001904           JUNCTION     0.27     1.66     8.29     0  01:58        1.66
  YS02001907           JUNCTION     0.59     1.96     8.25     0  01:58        1.96
  YS02001910           JUNCTION     0.39     1.99     8.50     0  01:58        1.86
  YS02001915           JUNCTION     0.20     1.95     8.66     0  01:58        1.73
  YS02001918           JUNCTION     0.09     1.81     8.88     0  01:58        1.42
  YS02001920           JUNCTION     0.17     2.14     9.15     0  01:58        1.50
  YS02001923           JUNCTION     0.06     2.03     9.29     0  01:58        1.27
  YS02001926           JUNCTION     0.10     1.90     9.35     0  01:58        1.15
  YS02001929           JUNCTION     0.05     1.78     9.47     0  01:58        0.99
  YS02006553           JUNCTION     0.60     2.00     8.29     0  02:15        1.99
  YS02006556           JUNCTION     0.57     2.02     8.33     0  02:15        1.97
  YS02006558           JUNCTION     0.61     2.07     8.34     0  02:15        2.01
  YS02006561           JUNCTION     0.09     1.21     7.87     0  02:15        1.07
  YS02163301           JUNCTION     0.47     1.93     8.44     0  01:59        1.93
  YS02163601           JUNCTION     0.58     2.05     8.45     0  01:59        2.05
  YS02164001           JUNCTION     0.51     1.97     8.43     0  01:59        1.97
  YSB1154              JUNCTION     0.34     1.96    11.02     0  02:01        1.96
  YSB1171              JUNCTION     0.49     1.95    10.85     0  01:57        1.95
  YSB1174              JUNCTION     0.29     1.82    10.93     0  02:01        1.82
  YSB6556              JUNCTION     0.24     1.75    10.92     0  01:57        1.75
  CC-1                 OUTFALL      0.00     0.00     0.00     0  00:00        0.00
  CC-2                 OUTFALL      0.00     0.00     0.00     0  00:00        0.00
  JK-1                 OUTFALL      0.00     0.00     0.00     0  00:00        0.00
  JK-2                 OUTFALL      0.00     0.00     0.00     0  00:00        0.00
  WSC                  OUTFALL      0.28     0.52     1.19     0  02:05        0.52
  CC-storage           STORAGE      1.15     2.30     7.80     0  02:33        2.30
  JK-storage           STORAGE      1.84     5.80     6.60     0  02:15        5.80
  XR-storage           STORAGE      8.08     9.26     7.26     0  08:00        9.26
  
  
  *******************
  Node Inflow Summary
  *******************
  
  -------------------------------------------------------------------------------------------------
                                  Maximum  Maximum                  Lateral       Total        Flow
                                  Lateral    Total  Time of Max      Inflow      Inflow     Balance
                                   Inflow   Inflow   Occurrence      Volume      Volume       Error
  Node                 Type           LPS      LPS  days hr:min    10^6 ltr    10^6 ltr     Percent
  -------------------------------------------------------------------------------------------------
  HS02004478           JUNCTION      0.00  2305.70     0  02:00           0        8.73      -0.009
  HS02004479           JUNCTION      0.00   438.78     0  01:57           0        0.81       0.113
  HS02004480           JUNCTION      0.00  2098.29     0  01:55           0        6.61       0.033
  HS02004770           JUNCTION   1609.56  1609.56     0  02:02        2.72        2.95       0.095
  HS02004777           JUNCTION      0.03   761.20     0  01:53    0.000864        1.94       0.262
  HS02004785           JUNCTION      0.15   785.45     0  01:53     0.00432        1.93       0.023
  HS02004788           JUNCTION    555.98   819.71     0  01:54       0.983        2.92       0.010
  HS02004792           JUNCTION   2058.91  2866.62     0  02:02        3.78         6.7       0.009
  HS02004799           JUNCTION    306.42  1772.90     0  01:55       0.467        5.95       0.047
  HS02004802           JUNCTION      0.00  1232.98     0  02:04           0        2.23       0.173
  HS02004807           JUNCTION    396.31  1379.03     0  02:02       0.597        2.29       0.179
  HS02004817           JUNCTION      0.60   987.40     0  02:02      0.0173        1.75       0.968
  HS02004824           JUNCTION    610.42   986.57     0  02:02        1.24        1.95       0.031
  HS02004830           JUNCTION      0.15   647.91     0  01:54     0.00432       0.926       0.125
  HS02004837           JUNCTION    392.01   814.68     0  01:55       0.792        1.23       0.044
  HS02004842           JUNCTION      0.00   810.44     0  01:55           0       0.755       1.729
  HS02004848           JUNCTION    569.50  1086.15     0  01:57        1.27        1.84      -0.012
  HS02004852           JUNCTION      0.00  1086.01     0  01:57           0        1.68      -0.018
  HS02004856           JUNCTION    156.77  1170.36     0  01:57       0.238        1.91       0.013
  HS02004862           JUNCTION    264.76  1216.23     0  01:57       0.542        2.45      -0.017
  HS02004870           JUNCTION    215.09  1323.73     0  01:56       0.327        2.78       0.007
  HS02004876           JUNCTION    246.63  1451.13     0  02:01       0.403        3.18       0.022
  HS02004881           JUNCTION    119.85  1573.32     0  02:01       0.177        3.36      -0.013
  HS02004901           JUNCTION    371.91   627.58     0  02:02       0.578       0.902       0.182
  WS02001211           JUNCTION      7.35   204.52     0  03:11       0.212        5.44       0.610
  WS02001212           JUNCTION      0.00   210.64     0  03:11           0        5.41       0.290
  WS02001213           JUNCTION      0.00   213.67     0  03:12           0        5.39       0.335
  WS02003059           JUNCTION      0.00   219.92     0  03:12           0        5.38       0.600
  WS02003060           JUNCTION     16.53  1515.07     0  02:04       0.476        15.6       0.099
  WS02003066           JUNCTION      0.00  1318.21     0  02:02           0        9.76       0.018
  WS02003067           JUNCTION      0.00  1317.40     0  02:02           0        9.77       0.049
  WS02003069           JUNCTION      0.32  1514.94     0  02:05     0.00922        15.6       0.104
  WS02003072           JUNCTION      0.00  1514.91     0  02:05           0        15.6       0.140
  WS02003073           JUNCTION      1.82  1516.65     0  02:06      0.0524        15.6       0.146
  WS02004138           JUNCTION      0.00   380.00     0  00:00           0        5.25       0.054
  WS02004139           JUNCTION      0.32   190.32     0  00:31     0.00924        5.26       0.508
  WS02004401           JUNCTION      0.00  1317.99     0  02:01           0        9.88       0.116
  WS02004402           JUNCTION      0.00  1319.15     0  02:01           0        9.87       0.117
  WS02004403           JUNCTION      0.00  1319.65     0  02:01           0        9.86       0.112
  WS02004404           JUNCTION      0.16  1322.08     0  02:01     0.00467        9.85       0.092
  WS02004405           JUNCTION      0.04  1323.10     0  02:01      0.0011        9.85       0.137
  WS02004406           JUNCTION      0.00  1323.75     0  02:01           0        9.83       0.226
  WS02004407           JUNCTION      0.00  1324.26     0  02:01           0        9.81       0.021
  WS02004409           JUNCTION      0.00  1317.29     0  02:01           0        9.81       0.045
  WS02004410           JUNCTION      0.00  1317.40     0  02:02           0         9.8       0.062
  WS02004411           JUNCTION      0.00  1317.55     0  02:01           0         9.8       0.073
  WS02004412           JUNCTION      0.00  1317.48     0  02:02           0        9.79       0.093
  WS02004413           JUNCTION      0.00  1317.57     0  02:02           0        9.78       0.158
  WS02006109           JUNCTION      1.23  1289.51     0  02:00      0.0354        9.67       0.114
  WS02006110           JUNCTION      0.00  1118.98     0  02:19           0        9.41       0.092
  WS02006111           JUNCTION      0.00  1119.41     0  02:19           0         9.4       0.010
  WS02006112           JUNCTION    324.62  1317.03     0  02:01       0.516        9.92       0.193
  WS02006113           JUNCTION      0.00  1119.66     0  02:19           0        9.41       0.033
  WS02006115           JUNCTION      0.00  1316.83     0  02:01           0         9.9       0.080
  WS02006116           JUNCTION      0.00  1317.32     0  02:01           0        9.89       0.074
  WS02006228           JUNCTION      0.00  1289.08     0  02:01           0        9.64       0.063
  WS02006229           JUNCTION      0.00  2307.08     0  02:00           0          12       0.044
  WS02006230           JUNCTION     10.28  1026.70     0  02:01       0.296        5.64       0.153
  WS02006231           JUNCTION      0.00   453.31     0  01:56           0        4.43      -0.002
  WS02006232           JUNCTION      0.00   453.44     0  01:56           0        4.42       0.156
  WS02006234           JUNCTION      0.00   453.21     0  01:56           0        4.42      -0.036
  WS02006235           JUNCTION      0.00   435.53     0  03:35           0        4.38       0.122
  WS02006238           JUNCTION      0.00   417.31     0  03:32           0        4.21      -0.092
  WS02006239           JUNCTION      0.00   417.47     0  03:32           0        4.19      -0.194
  WS02006240           JUNCTION      0.00   417.52     0  03:32           0        4.19       0.034
  WS02006242           JUNCTION      0.00   417.42     0  03:32           0        4.19       0.045
  WS02006243           JUNCTION      0.00   417.15     0  03:32           0        3.82      -0.142
  WS02006245           JUNCTION      0.00   416.93     0  03:35           0        3.83       0.310
  WS02006247           JUNCTION      0.00   417.28     0  03:33           0        3.83       0.042
  WS02006248           JUNCTION      0.00   418.92     0  03:27           0        4.09      -0.007
  WS02006249           JUNCTION      0.00  1359.29     0  02:01           0        6.57       0.124
  WS02006251           JUNCTION      0.08  1617.11     0  02:01     0.00222        6.71       0.005
  WS02006252           JUNCTION      0.00   400.00     0  00:00           0        3.43      -0.030
  WS02006253           JUNCTION     39.45  1615.14     0  02:01      0.0553        3.46       0.023
  WS02006256           JUNCTION      0.00   300.00     0  00:00           0       0.746      -0.139
  WS02006280           JUNCTION      0.00  2305.14     0  02:01           0        8.71       0.007
  WS02006284           JUNCTION      0.10  2304.89     0  02:00     0.00275        8.71       0.000
  WS02006287           JUNCTION      0.00  2305.28     0  02:00           0        8.71       0.008
  WSF200               JUNCTION      0.00  1318.47     0  02:02           0        9.76       0.011
  YS02001580           JUNCTION      0.00   125.09     0  01:54           0     0.00425       0.093
  YS02001583           JUNCTION      0.00   158.29     0  01:54           0      0.0153      -4.316
  YS02001586           JUNCTION    666.86   666.91     0  02:03        1.52        1.53       0.084
  YS02001590           JUNCTION      0.00   318.01     0  02:03           0        1.24       0.043
  YS02001593           JUNCTION      0.00   318.03     0  02:20           0        1.24       0.003
  YS02001596           JUNCTION      0.00   318.09     0  02:17           0        1.24      -0.020
  YS02001600           JUNCTION      0.00   318.15     0  02:01           0        1.24      -0.027
  YS02001601           JUNCTION   1140.49  1457.64     0  02:02        2.01        3.25       0.027
  YS02001602           JUNCTION      0.00   511.93     0  01:53           0        2.14       0.017
  YS02001605           JUNCTION      0.00   511.37     0  01:53           0           2       0.015
  YS02001607           JUNCTION      0.00   510.79     0  01:53           0           2       0.088
  YS02001610           JUNCTION      0.00   605.72     0  02:03           0        2.12       0.106
  YS02001613           JUNCTION      0.00   509.90     0  01:53           0        1.73       0.090
  YS02001616           JUNCTION      0.00   509.84     0  01:53           0        1.73       0.028
  YS02001619           JUNCTION   1156.29  1156.29     0  02:03        2.35        3.96       0.001
  YS02001622           JUNCTION      0.00   929.56     0  01:56           0        3.83       0.002
  YS02001625           JUNCTION      0.00  1220.11     0  02:03           0        3.97       0.361
  YS02001629           JUNCTION      0.00   929.51     0  01:56           0        3.03      -0.086
  YS02001633           JUNCTION    882.24  1388.98     0  01:56        1.53        4.38       0.074
  YS02001641           JUNCTION      0.00  1388.16     0  01:56           0        4.22       0.061
  YS02001644           JUNCTION    755.76  1783.21     0  01:56        1.25        5.47       0.062
  YS02001647           JUNCTION      0.00  1782.10     0  01:56           0         5.2      -0.005
  YS02001649           JUNCTION      0.00  1979.74     0  01:55           0        6.41       0.005
  YS02001652           JUNCTION      0.00   821.60     0  02:00           0        1.21      -0.122
  YS02001655           JUNCTION      0.15   820.41     0  02:00     0.00443        1.21       0.082
  YS02001658           JUNCTION      0.00   819.50     0  02:00           0         1.2      -0.066
  YS02001661           JUNCTION      0.00   801.26     0  02:00           0         1.2      -0.008
  YS02001664           JUNCTION    764.73   764.73     0  02:02         1.2         1.2      -0.028
  YS02001745           JUNCTION    458.20   458.20     0  02:01       0.685       0.687       0.225
  YS02001748           JUNCTION      0.04   557.69     0  01:59      0.0013       0.687      -0.368
  YS02001751           JUNCTION      0.01   489.96     0  02:01    0.000317       0.696       0.137
  YS02001754           JUNCTION      0.26   489.61     0  02:01     0.00749       0.712      -0.234
  YS02001757           JUNCTION      0.00  3241.18     0  02:00           0        9.52       0.017
  YS02001759           JUNCTION    668.42  1300.61     0  02:01           1        2.41      -0.002
  YS02001762           JUNCTION      0.00   705.38     0  01:59           0        1.41      -0.006
  YS02001765           JUNCTION      0.00   709.92     0  01:59           0        1.41       0.009
  YS02001767           JUNCTION      0.54   711.43     0  01:59      0.0154         1.4       0.015
  YS02001770           JUNCTION    922.64   922.64     0  02:02        1.47        1.52      -0.037
  YS02001774           JUNCTION      0.00   345.78     0  01:57           0       0.159       0.821
  YS02001779           JUNCTION      0.01   350.25     0  01:57    0.000144       0.112      -0.659
  YS02001783           JUNCTION      0.00  1162.22     0  02:01           0        3.65       0.005
  YS02001784           JUNCTION      1.06  1163.46     0  02:01      0.0305        3.68       0.010
  YS02001786           JUNCTION      0.06  1163.51     0  02:01     0.00162        3.69       0.014
  YS02001788           JUNCTION      0.07  1163.97     0  02:01     0.00204        3.69      -0.001
  YS02001790           JUNCTION      0.15  1177.70     0  02:00     0.00446        3.69      -0.009
  YS02001791           JUNCTION      0.00  1300.52     0  02:21           0        3.69      -0.019
  YS02001793           JUNCTION      0.00  1368.54     0  02:21           0        3.69      -0.005
  YS02001882           JUNCTION      0.00    54.45     0  01:56           0      0.0126       4.791
  YS02001884           JUNCTION      0.00    74.62     0  01:56           0      0.0487       5.196
  YS02001887           JUNCTION    714.13   716.42     0  02:01        1.03        1.07       0.411
  YS02001890           JUNCTION      0.00   717.56     0  02:01           0        1.03       0.493
  YS02001895           JUNCTION      0.00   516.81     0  02:04           0       0.972       0.166
  YS02001898           JUNCTION      0.00   517.04     0  02:05           0        0.97      -0.004
  YS02001901           JUNCTION      0.00   517.16     0  02:04           0       0.973       0.331
  YS02001904           JUNCTION      0.00   516.82     0  02:04           0       0.977       0.271
  YS02001907           JUNCTION      0.00  1715.52     0  02:02           0        3.04       0.591
  YS02001910           JUNCTION      0.00  1200.60     0  02:02           0        2.07       0.344
  YS02001915           JUNCTION    762.93  1200.12     0  02:02        1.27        2.11       0.068
  YS02001918           JUNCTION      0.00   453.99     0  01:59           0       0.863      -0.026
  YS02001920           JUNCTION      2.87   453.53     0  01:59      0.0827       0.847       0.070
  YS02001923           JUNCTION      0.04   437.16     0  02:02     0.00109       0.748      -0.152
  YS02001926           JUNCTION      0.05   576.27     0  01:58      0.0015       0.729      -0.124
  YS02001929           JUNCTION    394.07   394.07     0  02:03       0.715       0.717      -0.075
  YS02006553           JUNCTION      0.00   788.66     0  02:14           0        2.27       0.522
  YS02006556           JUNCTION      0.00   788.20     0  02:14           0        2.28       0.351
  YS02006558           JUNCTION    917.33  1166.15     0  01:57        1.43        3.68       0.093
  YS02006561           JUNCTION      0.00  1166.07     0  01:57           0        3.65      -0.008
  YS02163301           JUNCTION      0.00   929.72     0  01:56           0        3.02       0.044
  YS02163601           JUNCTION      0.11  1388.43     0  01:56     0.00317        4.22       0.111
  YS02164001           JUNCTION      0.00  1387.29     0  01:56           0        4.22       0.054
  YSB1154              JUNCTION    398.06   398.06     0  02:02       0.641       0.641       0.231
  YSB1171              JUNCTION      0.00   945.70     0  02:02           0        1.21       0.534
  YSB1174              JUNCTION    337.92   337.92     0  02:01       0.478       0.478       0.265
  YSB6556              JUNCTION      0.00   398.07     0  02:02           0       0.642       0.182
  CC-1                 OUTFALL       0.00   683.00     0  00:00           0        3.73       0.000
  CC-2                 OUTFALL       0.00   683.00     0  00:00           0        2.98       0.000
  JK-1                 OUTFALL       0.00  1000.00     0  00:00           0        1.53       0.000
  JK-2                 OUTFALL       0.00  1000.00     0  00:00           0        1.35       0.000
  WSC                  OUTFALL       0.00  1517.46     0  02:05           0        15.6       0.000
  CC-storage           STORAGE       0.00  3243.54     0  02:00           0        11.7      -0.256
  JK-storage           STORAGE       0.00  1699.35     0  02:21           0        3.84      -0.191
  XR-storage           STORAGE     200.00   200.00     0  00:00        5.76        6.36       0.001
  
  
  **********************
  Node Surcharge Summary
  **********************
  
  Surcharging occurs when water rises above the top of the highest conduit.
  ---------------------------------------------------------------------
                                               Max. Height   Min. Depth
                                   Hours       Above Crown    Below Rim
  Node                 Type      Surcharged         Meters       Meters
  ---------------------------------------------------------------------
  HS02004478           JUNCTION        0.49          0.700        0.240
  HS02004479           JUNCTION        0.62          0.922        0.128
  HS02004480           JUNCTION        0.66          0.997        0.103
  HS02004770           JUNCTION        0.57          0.720        0.000
  HS02004777           JUNCTION        0.57          0.780        0.000
  HS02004785           JUNCTION        0.52          0.790        0.000
  HS02004788           JUNCTION        0.51          0.720        0.000
  HS02004792           JUNCTION        0.63          0.900        0.000
  HS02004799           JUNCTION        0.76          1.060        0.000
  HS02004802           JUNCTION        0.67          1.113        0.097
  HS02004807           JUNCTION        0.64          1.220        0.000
  HS02004817           JUNCTION        1.29          1.725        0.015
  HS02004824           JUNCTION        0.51          1.305        0.005
  HS02004830           JUNCTION        0.48          1.309        0.021
  HS02004837           JUNCTION        0.44          1.259        0.081
  HS02004842           JUNCTION        0.57          1.520        0.000
  HS02004848           JUNCTION        0.40          1.321        0.049
  HS02004852           JUNCTION        0.43          1.420        0.000
  HS02004856           JUNCTION        0.41          1.300        0.000
  HS02004862           JUNCTION        0.45          1.300        0.000
  HS02004870           JUNCTION        0.47          1.400        0.000
  HS02004876           JUNCTION        0.50          1.340        0.220
  HS02004881           JUNCTION        0.47          1.329        0.121
  HS02004901           JUNCTION        0.58          0.720        0.000
  WS02004401           JUNCTION        1.52          0.918        0.742
  WS02004402           JUNCTION        1.54          0.854        0.886
  WS02004403           JUNCTION        1.55          0.769        1.261
  WS02004404           JUNCTION        1.64          0.775        2.005
  WS02004405           JUNCTION        1.62          0.727        2.073
  WS02004406           JUNCTION        1.60          0.608        1.842
  WS02004409           JUNCTION        1.05          0.402        1.958
  WS02004410           JUNCTION        1.00          0.310        2.230
  WS02004411           JUNCTION        0.88          0.218        2.312
  WS02004412           JUNCTION        0.78          0.113        2.197
  WS02004413           JUNCTION        1.37          0.150        2.050
  WS02006109           JUNCTION        2.25          1.820        0.000
  WS02006110           JUNCTION        1.81          1.501        0.349
  WS02006111           JUNCTION        1.26          1.001        0.869
  WS02006112           JUNCTION        1.95          1.477        0.203
  WS02006113           JUNCTION        1.31          1.070        0.860
  WS02006115           JUNCTION        1.46          1.027        1.223
  WS02006116           JUNCTION        1.47          0.951        1.339
  WS02006228           JUNCTION        2.24          2.200        0.000
  WS02006229           JUNCTION        0.96          1.064        0.006
  WS02006230           JUNCTION        1.61          1.570        0.000
  WS02006231           JUNCTION        1.69          1.479        0.051
  WS02006232           JUNCTION        2.10          1.480        0.000
  WS02006234           JUNCTION        1.79          1.240        0.000
  WS02006235           JUNCTION        1.85          1.290        0.000
  WS02006238           JUNCTION        1.94          1.317        0.113
  WS02006239           JUNCTION        1.81          1.290        0.000
  WS02006240           JUNCTION        1.78          1.358        0.032
  WS02006242           JUNCTION        1.94          0.820        0.000
  WS02006243           JUNCTION        1.74          0.684        0.086
  WS02006245           JUNCTION        1.69          0.626        0.224
  WS02006247           JUNCTION        1.73          0.573        0.187
  WS02006248           JUNCTION        1.64          0.380        0.000
  WS02006249           JUNCTION        1.68          0.390        0.000
  WS02006251           JUNCTION        1.42          1.180        0.000
  WS02006252           JUNCTION        2.02          1.100        0.000
  WS02006253           JUNCTION        1.44          2.236        0.244
  WS02006256           JUNCTION        7.98          2.050        0.000
  WS02006280           JUNCTION        0.77          0.721        0.059
  WS02006284           JUNCTION        0.69          0.708        0.092
  WS02006287           JUNCTION        0.59          0.781        0.109
  YS02001580           JUNCTION        0.56          0.450        0.000
  YS02001583           JUNCTION        0.56          0.394        0.106
  YS02001586           JUNCTION        0.79          0.510        0.000
  YS02001590           JUNCTION        0.89          0.726        0.024
  YS02001593           JUNCTION        0.90          0.677        0.163
  YS02001596           JUNCTION        1.10          0.928        0.142
  YS02001600           JUNCTION        1.42          1.184        0.006
  YS02001601           JUNCTION        1.89          1.440        0.000
  YS02001602           JUNCTION        1.80          1.270        0.000
  YS02001605           JUNCTION        1.77          1.180        0.000
  YS02001607           JUNCTION        1.20          0.646        0.034
  YS02001610           JUNCTION        1.28          0.680        0.000
  YS02001613           JUNCTION        1.21          0.666        0.034
  YS02001616           JUNCTION        1.14          0.603        0.007
  YS02001619           JUNCTION        1.12          0.610        0.000
  YS02001622           JUNCTION        1.14          0.572        0.048
  YS02001625           JUNCTION        1.49          0.780        0.000
  YS02001629           JUNCTION        1.03          0.470        0.000
  YS02001633           JUNCTION        1.63          1.010        0.050
  YS02001641           JUNCTION        1.63          0.961        0.139
  YS02001644           JUNCTION        1.62          0.920        0.000
  YS02001647           JUNCTION        1.39          0.842        0.058
  YS02001649           JUNCTION        1.61          1.050        0.000
  YS02001652           JUNCTION        1.35          1.130        0.000
  YS02001655           JUNCTION        1.02          0.788        0.412
  YS02001658           JUNCTION        0.24          0.641        0.659
  YS02001661           JUNCTION        0.01          0.346        1.044
  YS02001748           JUNCTION        0.16          0.623        0.567
  YS02001751           JUNCTION        0.86          0.689        0.511
  YS02001754           JUNCTION        1.31          0.712        0.438
  YS02001757           JUNCTION        1.79          1.024        0.186
  YS02001759           JUNCTION        1.62          0.993        0.217
  YS02001762           JUNCTION        1.58          0.976        0.174
  YS02001765           JUNCTION        1.53          0.947        0.153
  YS02001767           JUNCTION        1.49          0.917        0.113
  YS02001770           JUNCTION        1.46          0.920        0.000
  YS02001774           JUNCTION        1.56          1.001        0.049
  YS02001779           JUNCTION        1.27          0.680        0.000
  YS02001783           JUNCTION        0.49          0.849        0.751
  YS02001784           JUNCTION        0.47          0.825        0.665
  YS02001786           JUNCTION        0.39          0.732        0.698
  YS02001788           JUNCTION        0.09          0.631        0.849
  YS02001790           JUNCTION        0.12          0.732        0.425
  YS02001791           JUNCTION        0.11          0.529        1.391
  YS02001793           JUNCTION        0.16          0.803        1.797
  YS02001882           JUNCTION        0.44          0.758        0.072
  YS02001884           JUNCTION        0.45          0.777        0.093
  YS02001887           JUNCTION        0.48          0.823        0.127
  YS02001890           JUNCTION        0.48          0.760        0.000
  YS02001895           JUNCTION        0.43          0.585        0.165
  YS02001898           JUNCTION        0.42          0.567        0.173
  YS02001901           JUNCTION        0.46          0.707        0.163
  YS02001904           JUNCTION        0.46          0.663        0.187
  YS02001907           JUNCTION        0.68          0.950        0.000
  YS02001910           JUNCTION        0.51          0.990        0.110
  YS02001915           JUNCTION        0.44          0.946        0.054
  YS02001918           JUNCTION        0.37          0.810        0.000
  YS02001920           JUNCTION        0.38          1.140        0.000
  YS02001923           JUNCTION        0.03          0.820        0.000
  YS02001926           JUNCTION        0.04          0.900        0.000
  YS02001929           JUNCTION        0.01          0.780        0.000
  YS02006553           JUNCTION        0.70          1.004        0.186
  YS02006556           JUNCTION        0.59          0.977        0.373
  YS02006558           JUNCTION        0.58          0.972        0.428
  YS02006561           JUNCTION        0.37          0.406        0.744
  YS02163301           JUNCTION        1.58          0.925        0.105
  YS02163601           JUNCTION        1.70          1.049        0.031
  YS02164001           JUNCTION        1.62          0.967        0.133
  YSB1154              JUNCTION        0.89          1.262        0.138
  YSB1171              JUNCTION        0.90          1.100        0.000
  YSB1174              JUNCTION        0.79          1.125        0.125
  YSB6556              JUNCTION        0.73          1.052        0.048
  
  
  *********************
  Node Flooding Summary
  *********************
  
  Flooding refers to all water that overflows a node, whether it ponds or not.
  --------------------------------------------------------------------------
                                                             Total   Maximum
                                 Maximum   Time of Max       Flood    Ponded
                        Hours       Rate    Occurrence      Volume     Depth
  Node                 Flooded       LPS   days hr:min    10^6 ltr    Meters
  --------------------------------------------------------------------------
  HS02004770              0.37   1102.18      0  02:02       0.693     0.000
  HS02004777              0.01     44.58      0  01:54       0.000     0.000
  HS02004785              0.01    155.30      0  01:54       0.001     0.000
  HS02004788              0.01     87.70      0  01:54       0.000     0.000
  HS02004792              0.37   1724.04      0  02:02       1.211     0.000
  HS02004799              0.15    187.73      0  02:00       0.055     0.000
  HS02004807              0.07    150.67      0  02:02       0.022     0.000
  HS02004842              0.01     88.43      0  01:57       0.001     0.000
  HS02004852              0.01     92.59      0  01:57       0.000     0.000
  HS02004856              0.01    332.54      0  01:57       0.001     0.000
  HS02004862              0.01    289.87      0  01:57       0.001     0.000
  HS02004870              0.01    215.35      0  01:57       0.000     0.000
  HS02004901              0.44    627.46      0  02:02       0.664     0.000
  WS02006109              0.41    300.45      0  02:01       0.247     0.000
  WS02006228              0.01      4.22      0  01:57       0.000     0.000
  WS02006230              0.70    573.88      0  02:01       0.941     0.000
  WS02006232              0.16      1.29      0  01:53       0.000     0.000
  WS02006234              0.75    128.53      0  01:58       0.250     0.000
  WS02006235              0.01      8.27      0  03:05       0.000     0.000
  WS02006239              0.01     59.71      0  03:05       0.000     0.000
  WS02006242              0.85    137.70      0  01:56       0.367     0.000
  WS02006248              1.20    339.10      0  01:53       1.252     0.000
  WS02006249              1.42   1298.16      0  02:01       3.466     0.000
  WS02006251              0.01     32.32      0  01:57       0.000     0.000
  WS02006252              0.36    379.37      0  02:00       0.183     0.000
  WS02006256              0.54    293.19      0  00:00       0.364     0.000
  YS02001580              0.01     96.28      0  01:54       0.000     0.000
  YS02001586              0.44    349.35      0  02:04       0.274     0.000
  YS02001601              0.67   1059.84      0  02:02       1.115     0.000
  YS02001602              0.68     62.05      0  02:12       0.139     0.000
  YS02001605              0.01      0.19      0  02:01       0.000     0.000
  YS02001610              0.49    605.21      0  02:03       0.514     0.000
  YS02001619              0.01      0.79      0  02:01       0.000     0.000
  YS02001625              0.62   1219.76      0  02:03       1.091     0.000
  YS02001629              0.08    190.49      0  02:01       0.034     0.000
  YS02001644              0.17    703.90      0  02:01       0.256     0.000
  YS02001649              0.01     49.78      0  01:59       0.000     0.000
  YS02001652              0.01     45.37      0  01:59       0.000     0.000
  YS02001770              0.01      7.95      0  01:59       0.000     0.000
  YS02001779              0.14    320.27      0  02:02       0.094     0.000
  YS02001890              0.12    208.30      0  02:01       0.049     0.000
  YS02001907              0.28   1463.85      0  02:02       0.764     0.000
  YS02001918              0.01    189.40      0  01:58       0.002     0.000
  YS02001920              0.01     46.65      0  01:58       0.000     0.000
  YS02001923              0.01     94.07      0  01:58       0.000     0.000
  YS02001926              0.01    235.93      0  01:58       0.001     0.000
  YS02001929              0.01     40.25      0  01:58       0.000     0.000
  YSB1171                 0.24    945.30      0  02:02       0.478     0.000
  CC-storage              0.25   1116.61      0  02:33       0.231     0.000
  JK-storage              0.08    486.46      0  02:15       0.121     0.000
  
  
  **********************
  Storage Volume Summary
  **********************
  
  --------------------------------------------------------------------------------------------------
                         Average     Avg  Evap Exfil       Maximum     Max    Time of Max    Maximum
                          Volume    Pcnt  Pcnt  Pcnt        Volume    Pcnt     Occurrence    Outflow
  Storage Unit           1000 m3    Full  Loss  Loss       1000 m3    Full    days hr:min        LPS
  --------------------------------------------------------------------------------------------------
  CC-storage               3.193      50     0     0         6.410     100       0  02:33    1783.53
  JK-storage               0.093      32     0     0         0.291     100       0  02:15    2300.00
  XR-storage               0.970      67     0     0         1.111      77       0  08:00     380.00
  
  
  ***********************
  Outfall Loading Summary
  ***********************
  
  -----------------------------------------------------------
                         Flow       Avg       Max       Total
                         Freq      Flow      Flow      Volume
  Outfall Node           Pcnt       LPS       LPS    10^6 ltr
  -----------------------------------------------------------
  CC-1                  43.77    339.59    683.00       3.734
  CC-2                  87.67    132.31    683.00       2.983
  JK-1                  22.96    188.69   1000.00       1.531
  JK-2                  15.47    234.16   1000.00       1.347
  WSC                   99.97    558.52   1517.46      15.561
  -----------------------------------------------------------
  System                53.97   1453.27   1517.46      25.156
  
  
  ********************
  Link Flow Summary
  ********************
  
  -----------------------------------------------------------------------------
                                 Maximum  Time of Max   Maximum    Max/    Max/
                                  |Flow|   Occurrence   |Veloc|    Full    Full
  Link                 Type          LPS  days hr:min     m/sec    Flow   Depth
  -----------------------------------------------------------------------------
  1                    CONDUIT   1517.46     0  02:05      3.71    0.53    0.52
  HS02004478WS02006287 CONDUIT   2305.28     0  02:00      2.61    0.65    1.00
  HS02004479HS02004480 CONDUIT    441.23     0  01:57      0.63    0.43    1.00
  HS02004480HS02004478 CONDUIT   2092.32     0  01:55      2.99    8.81    1.00
  HS02004770HS02004777 CONDUIT    761.17     0  01:53      1.09    1.39    1.00
  HS02004777HS02004785 CONDUIT    785.30     0  01:53      1.18    0.97    1.00
  HS02004785HS02004788 CONDUIT    619.30     0  02:20      1.36    4.67    1.00
  HS02004788HS02004792 CONDUIT    808.28     0  02:01      1.42    0.53    1.00
  HS02004792HS02004799 CONDUIT   1632.96     0  01:55      2.33    1.00    1.00
  HS02004799HS02004480 CONDUIT   1771.17     0  01:55      2.53    2.24    1.00
  HS02004802HS02004478 CONDUIT   1233.32     0  02:04      1.76    1.09    1.00
  HS02004807HS02004802 CONDUIT   1232.98     0  02:04      1.76    2.35    1.00
  HS02004817HS02004807 CONDUIT    987.49     0  02:02      1.41    0.58    1.00
  HS02004817HS02004824 CONDUIT    986.80     0  02:02      1.41    0.44    1.00
  HS02004824HS02004830 CONDUIT    647.76     0  01:54      0.95    0.85    1.00
  HS02004830HS02004837 CONDUIT    639.59     0  01:55      0.99    0.64    1.00
  HS02004837HS02004842 CONDUIT    810.44     0  01:55      1.16    0.48    1.00
  HS02004842HS02004848 CONDUIT    810.55     0  01:55      1.27    0.47    1.00
  HS02004848HS02004852 CONDUIT   1086.01     0  01:57      1.61    1.22    1.00
  HS02004852HS02004856 CONDUIT   1078.59     0  01:57      1.54    1.23    1.00
  HS02004856HS02004862 CONDUIT   1076.68     0  01:57      1.70    1.07    1.00
  HS02004862HS02004870 CONDUIT   1203.75     0  01:56      1.96    1.30    1.00
  HS02004870HS02004876 CONDUIT   1210.88     0  02:01      1.85    0.80    1.00
  HS02004876HS02004881 CONDUIT   1453.59     0  02:01      2.57   15.46    1.00
  HS02004881HS02006253 CONDUIT   1575.84     0  02:01      2.58    0.31    1.00
  HS02004901HS02004770 CONDUIT    265.79     0  02:16      0.38    1.00    1.00
  WS02001211WS02001212 CONDUIT    210.64     0  03:11      0.54    0.16    0.70
  WS02001212WS02001213 CONDUIT    213.67     0  03:12      1.04    0.33    0.56
  WS02001213WS02003059 CONDUIT    219.92     0  03:12      0.47    0.36    0.90
  WS02003059WS02003060 CONDUIT    225.44     0  03:12      0.67    0.15    0.82
  WS02003060WS02003069 CONDUIT   1514.62     0  02:05      2.09    0.59    0.61
  WS02003066WSF200     CONDUIT   1318.47     0  02:02      3.26    0.22    0.39
  WS02003067WS02003066 CONDUIT   1318.21     0  02:02      2.02    0.42    0.56
  WS02003069WS02003072 CONDUIT   1514.91     0  02:05      1.90    0.73    0.66
  WS02003072WS02003073 CONDUIT   1514.83     0  02:06      2.06    3.27    0.62
  WS02004138WS02004139 CONDUIT    190.00     0  00:31      2.15    0.04    0.42
  WS02004139WS02001211 CONDUIT    197.17     0  03:11      0.54    0.25    0.61
  WS02004401WS02004402 CONDUIT   1319.15     0  02:01      1.68    1.58    1.00
  WS02004402WS02004403 CONDUIT   1319.65     0  02:01      1.68    1.90    1.00
  WS02004403WS02004404 CONDUIT   1321.91     0  02:01      1.68    0.96    1.00
  WS02004404WS02004405 CONDUIT   1323.06     0  02:01      1.68   12.96    1.00
  WS02004405WS02004406 CONDUIT   1323.75     0  02:01      1.69    2.61    1.00
  WS02004406WS02004407 CONDUIT   1324.26     0  02:01      1.75    0.59    0.98
  WS02004407WS02004409 CONDUIT   1317.29     0  02:01      1.77    0.47    0.98
  WS02004409WS02004410 CONDUIT   1317.40     0  02:02      1.68    1.70    1.00
  WS02004410WS02004411 CONDUIT   1317.55     0  02:01      1.68    1.80    1.00
  WS02004411WS02004412 CONDUIT   1317.48     0  02:02      1.68    1.87    1.00
  WS02004412WS02004413 CONDUIT   1317.57     0  02:02      1.68    0.88    1.00
  WS02004413WS02003067 CONDUIT   1317.40     0  02:02      2.03    0.56    0.77
  WS02006109WS02006110 CONDUIT   1118.98     0  02:19      2.23    2.15    1.00
  WS02006110WS02006113 CONDUIT   1119.66     0  02:19      2.23    1.02    1.00
  WS02006111WS02006112 CONDUIT   1119.62     0  02:19      2.23    0.53    1.00
  WS02006112WS02006115 CONDUIT   1316.83     0  02:01      1.68    0.78    1.00
  WS02006113WS02006111 CONDUIT   1119.41     0  02:19      2.63    1.34    1.00
  WS02006115WS02006116 CONDUIT   1317.32     0  02:01      1.68    1.69    1.00
  WS02006116WS02004401 CONDUIT   1317.99     0  02:01      1.68    1.82    1.00
  WS02006228WS02006109 CONDUIT   1288.28     0  02:00      2.56    5.63    1.00
  WS02006229WS02006228 CONDUIT   1289.08     0  02:01      2.56    4.27    1.00
  WS02006230WS02006229 CONDUIT   1016.42     0  02:01      2.64   22.62    1.00
  WS02006231WS02006230 CONDUIT    453.31     0  01:56      1.35    6.88    1.00
  WS02006232WS02006231 CONDUIT    453.44     0  01:56      1.18    0.95    1.00
  WS02006234WS02006232 CONDUIT    453.21     0  01:56      1.41    0.92    1.00
  WS02006235WS02006234 CONDUIT    435.87     0  03:35      1.23    4.60    1.00
  WS02006238WS02006235 CONDUIT    417.16     0  03:35      1.45    0.93    1.00
  WS02006239WS02006238 CONDUIT    417.31     0  03:32      1.12    1.34    1.00
  WS02006240WS02006239 CONDUIT    417.47     0  03:32      1.26    1.31    1.00
  WS02006242WS02006240 CONDUIT    417.52     0  03:32      1.14    1.66    1.00
  WS02006243WS02006242 CONDUIT    417.42     0  03:32      1.34    0.89    1.00
  WS02006245WS02006243 CONDUIT    417.15     0  03:32      1.39    1.23    1.00
  WS02006247WS02006245 CONDUIT    416.93     0  03:35      1.37    3.31    1.00
  WS02006248WS02006247 CONDUIT    417.28     0  03:33      1.38    0.91    1.00
  WS02006249WS02006248 CONDUIT    418.92     0  03:27      1.38    2.29    1.00
  WS02006251WS02006249 CONDUIT   1359.29     0  02:01      3.53    3.92    1.00
  WS02006252WS02006251 CONDUIT    410.19     0  03:00      3.88    1.51    1.00
  WS02006253WS02006251 CONDUIT   1617.04     0  02:01      4.20    4.85    1.00
  WS02006256WS02006235 CONDUIT    288.93     0  00:00      4.23    3.06    1.00
  WS02006280WS02006229 CONDUIT   2307.08     0  02:00      4.40    0.49    1.00
  WS02006284WS02006280 CONDUIT   2305.14     0  02:01      3.02    0.97    1.00
  WS02006287WS02006284 CONDUIT   2304.79     0  02:00      2.93    1.07    1.00
  WSF200WS02003060     CONDUIT   1319.15     0  02:02      2.30    0.29    0.51
  YS02001580YS02001583 CONDUIT    125.09     0  01:54      0.65    0.48    1.00
  YS02001583YS02001586 CONDUIT    156.39     0  01:54      0.65    0.24    1.00
  YS02001586YS02001590 CONDUIT    318.01     0  02:03      1.26    0.56    1.00
  YS02001590YS02001593 CONDUIT    318.03     0  02:20      1.12    2.00    1.00
  YS02001593YS02001596 CONDUIT    318.09     0  02:17      1.62    0.50    1.00
  YS02001596YS02001600 CONDUIT    318.15     0  02:01      1.13    0.62    1.00
  YS02001600YS02001601 CONDUIT    318.03     0  02:17      1.12    0.55    1.00
  YS02001601YS02001602 CONDUIT    511.93     0  01:53      1.81    1.85    1.00
  YS02001602YS02001605 CONDUIT    511.37     0  01:53      1.81   10.82    1.00
  YS02001605YS02001607 CONDUIT    510.79     0  01:53      1.81    2.80    1.00
  YS02001607YS02001610 CONDUIT    510.89     0  01:53      0.65    0.49    1.00
  YS02001610YS02001613 CONDUIT    509.90     0  01:53      0.65    0.59    1.00
  YS02001613YS02001616 CONDUIT    509.84     0  01:53      0.66    0.44    1.00
  YS02001616YS02001619 CONDUIT    495.67     0  01:54      0.66    0.86    1.00
  YS02001619YS02001622 CONDUIT    929.56     0  01:56      1.18    1.37    1.00
  YS02001622YS02001625 CONDUIT    929.68     0  01:56      1.18    0.50    1.00
  YS02001625YS02001629 CONDUIT    929.51     0  01:56      1.18    0.44    1.00
  YS02001629YS02163301 CONDUIT    929.72     0  01:56      1.18    1.14    1.00
  YS02001633YS02163601 CONDUIT   1388.32     0  01:56      1.77    1.46    1.00
  YS02001641YS02001644 CONDUIT   1388.43     0  01:56      1.77    4.49    1.00
  YS02001644YS02001647 CONDUIT   1782.10     0  01:56      2.28    1.05    1.00
  YS02001647YS02001649 CONDUIT   1777.51     0  01:57      2.35    0.94    1.00
  YS02001649YS02001757 CONDUIT   1951.71     0  01:56      2.51    1.18    1.00
  YS02001652YS02001649 CONDUIT    822.25     0  02:00      1.05    0.41    1.00
  YS02001655YS02001652 CONDUIT    821.60     0  02:00      1.31    0.40    1.00
  YS02001658YS02001655 CONDUIT    820.26     0  02:00      1.90    0.35    1.00
  YS02001661YS02001658 CONDUIT    819.50     0  02:00      2.31    0.32    1.00
  YS02001664YS02001661 CONDUIT    801.26     0  02:00      2.30    0.25    0.81
  YS02001745YS02001748 CONDUIT    557.64     0  01:59      2.13    0.21    0.91
  YS02001748YS02001751 CONDUIT    489.95     0  02:01      1.65    0.25    1.00
  YS02001751YS02001754 CONDUIT    489.35     0  02:01      1.40    0.24    1.00
  YS02001754YS02001757 CONDUIT    489.89     0  02:01      0.62    0.20    1.00
  YS02001757CaochengTiaoxuchi CONDUIT   3243.54     0  02:00      4.13    1.40    1.00
  YS02001759YS02001757 CONDUIT   1299.89     0  02:01      1.66    0.92    1.00
  YS02001762YS02001759 CONDUIT    701.63     0  01:59      0.89    0.81    1.00
  YS02001765YS02001762 CONDUIT    705.38     0  01:59      0.90    0.66    1.00
  YS02001767YS02001765 CONDUIT    709.92     0  01:59      0.90    0.89    1.00
  YS02001770YS02001767 CONDUIT    710.90     0  01:59      0.91    2.82    1.00
  YS02001774YS02001770 CONDUIT    345.78     0  01:57      0.44    0.22    1.00
  YS02001779YS02001774 CONDUIT    350.25     0  01:57      0.45    0.18    1.00
  YS02001783YS02001784 CONDUIT   1162.40     0  02:01      2.31    1.60    1.00
  YS02001784YS02001785 CONDUIT   1163.45     0  02:01      2.31    2.71    1.00
  YS02001786YS02001788 CONDUIT   1163.90     0  02:01      2.48    2.24    1.00
  YS02001788YS02001790 CONDUIT   1177.55     0  02:00      2.72    0.87    1.00
  YS02001790YS02001791 CONDUIT   1300.52     0  02:21      3.44    1.41    1.00
  YS02001791YS02001793 CONDUIT   1368.54     0  02:21      6.78    0.59    1.00
  YS02001793JiankangQianchi CONDUIT   1699.35     0  02:21      2.60    0.13    1.00
  YS02001882YS02001884 CONDUIT     54.45     0  01:56      0.14    0.06    1.00
  YS02001884YS02001887 CONDUIT     74.62     0  01:56      0.10    0.10    1.00
  YS02001887YS02001890 CONDUIT    717.56     0  02:01      0.91    1.23    1.00
  YS02001890YS02001895 CONDUIT    516.81     0  02:04      0.66    0.24    1.00
  YS02001895YS02001898 CONDUIT    517.04     0  02:05      0.66    0.90    1.00
  YS02001898YS02001901 CONDUIT    517.16     0  02:04      0.66    0.33    1.00
  YS02001901YS02001904 CONDUIT    516.82     0  02:04      0.66    0.80    1.00
  YS02001904YS02001907 CONDUIT    516.52     0  02:05      0.66    0.18    1.00
  YS02001907YS02006553 CONDUIT    788.66     0  02:14      0.88    0.93    1.00
  YS02001910YS02001907 CONDUIT   1200.72     0  02:02      1.53    0.68    1.00
  YS02001915YS02001910 CONDUIT   1200.60     0  02:02      1.53    0.60    1.00
  YS02001918YS02001915 CONDUIT    454.10     0  01:59      0.58    0.25    1.00
  YS02001920YS02001918 CONDUIT    453.99     0  01:59      0.64    0.44    1.00
  YS02001923YS02001920 CONDUIT    450.66     0  01:59      0.71    0.20    1.00
  YS02001926YS02001923 CONDUIT    437.12     0  02:02      0.97    0.62    1.00
  YS02001929YS02001926 CONDUIT    434.61     0  02:02      1.15    0.21    1.00
  YS02006553YS02006556 CONDUIT    788.20     0  02:14      1.00    0.67    1.00
  YS02006556YS02006558 CONDUIT    790.25     0  02:14      1.01    0.62    1.00
  YS02006558YS02006561 CONDUIT   1166.07     0  01:57      4.12    2.58    1.00
  YS02006561YS02001783 CONDUIT   1162.22     0  02:01      2.31    0.60    1.00
  YS02163301YS02001633 CONDUIT    929.02     0  01:56      1.18    0.87    1.00
  YS02163601YS02164001 CONDUIT   1387.29     0  01:56      1.77    1.23    1.00
  YS02164001YS02001641 CONDUIT   1388.16     0  01:56      1.77    1.90    1.00
  YSB1154YSB6556       CONDUIT    398.07     0  02:02      1.03    0.72    1.00
  YSB1171HS02004479    CONDUIT    438.78     0  01:57      0.87    0.29    1.00
  YSB1174YSB1171       CONDUIT    338.43     0  02:01      0.88    0.52    1.00
  YSB6556YSB1171       CONDUIT    399.21     0  02:02      1.04    0.41    1.00
  CC-R1                PUMP       683.00     0  00:00              1.00
  CC-R2                PUMP       683.00     0  00:00              1.00
  CC-S1                PUMP       200.00     0  00:00              1.00
  CC-S2                PUMP       200.00     0  00:00              1.00
  JK-R1                PUMP      1000.00     0  00:00              1.00
  JK-R2                PUMP      1000.00     0  00:00              1.00
  JK-S                 PUMP       300.00     0  00:00              1.00
  XR-1                 PUMP        95.00     0  00:00              1.00
  XR-2                 PUMP        95.00     0  00:00              1.00
  XR-3                 PUMP        95.00     0  00:00              1.00
  XR-4                 PUMP        95.00     0  00:00              1.00
  
  
  ***************************
  Flow Classification Summary
  ***************************
  
  -------------------------------------------------------------------------------------
                      Adjusted    ---------- Fraction of Time in Flow Class ---------- 
                       /Actual         Up    Down  Sub   Sup   Up    Down  Norm  Inlet 
  Conduit               Length    Dry  Dry   Dry   Crit  Crit  Crit  Crit  Ltd   Ctrl  
  -------------------------------------------------------------------------------------
  1                       1.00   0.00  0.00  0.00  0.00  1.00  0.00  0.00  0.36  0.00
  HS02004478WS02006287    1.00   0.10  0.00  0.00  0.71  0.19  0.00  0.00  0.59  0.00
  HS02004479HS02004480    1.00   0.02  0.00  0.00  0.98  0.00  0.00  0.00  0.11  0.00
  HS02004480HS02004478    1.00   0.09  0.00  0.00  0.66  0.00  0.00  0.25  0.00  0.00
  HS02004770HS02004777    1.00   0.00  0.08  0.00  0.92  0.00  0.00  0.00  0.02  0.00
  HS02004777HS02004785    1.00   0.00  0.00  0.00  1.00  0.00  0.00  0.00  0.11  0.00
  HS02004785HS02004788    1.00   0.00  0.00  0.00  1.00  0.00  0.00  0.00  0.00  0.00
  HS02004788HS02004792    1.00   0.00  0.00  0.00  1.00  0.00  0.00  0.00  0.90  0.00
  HS02004792HS02004799    1.00   0.00  0.00  0.00  0.99  0.01  0.00  0.00  0.85  0.00
  HS02004799HS02004480    1.00   0.00  0.02  0.00  0.90  0.00  0.09  0.00  0.00  0.00
  HS02004802HS02004478    1.00   0.08  0.00  0.00  0.91  0.00  0.00  0.00  0.02  0.00
  HS02004807HS02004802    1.00   0.08  0.00  0.00  0.90  0.00  0.00  0.01  0.00  0.00
  HS02004817HS02004807    1.00   0.00  0.08  0.00  0.92  0.00  0.00  0.00  0.01  0.00
  HS02004817HS02004824    1.00   0.00  0.00  0.00  1.00  0.00  0.00  0.00  0.81  0.00
  HS02004824HS02004830    1.00   0.00  0.00  0.00  1.00  0.00  0.00  0.00  0.01  0.00
  HS02004830HS02004837    1.00   0.00  0.00  0.00  1.00  0.00  0.00  0.00  0.88  0.00
  HS02004837HS02004842    1.00   0.00  0.00  0.00  1.00  0.00  0.00  0.00  0.11  0.00
  HS02004842HS02004848    1.00   0.00  0.08  0.00  0.92  0.00  0.00  0.00  0.57  0.00
  HS02004848HS02004852    1.00   0.08  0.00  0.00  0.92  0.00  0.00  0.00  0.71  0.00
  HS02004852HS02004856    1.00   0.08  0.01  0.00  0.91  0.00  0.00  0.00  0.67  0.00
  HS02004856HS02004862    1.00   0.00  0.11  0.00  0.89  0.00  0.00  0.00  0.74  0.00
  HS02004862HS02004870    1.00   0.00  0.00  0.00  1.00  0.00  0.00  0.00  0.03  0.00
  HS02004870HS02004876    1.00   0.00  0.00  0.00  0.99  0.00  0.00  0.00  0.85  0.00
  HS02004876HS02004881    1.00   0.01  0.00  0.00  0.85  0.14  0.00  0.00  0.00  0.00
  HS02004881HS02006253    1.00   0.02  0.00  0.00  0.59  0.01  0.00  0.37  0.39  0.00
  HS02004901HS02004770    1.00   0.08  0.00  0.00  0.92  0.00  0.00  0.00  0.00  0.00
  WS02001211WS02001212    1.00   0.00  0.01  0.00  0.99  0.00  0.00  0.00  0.00  0.00
  WS02001212WS02001213    1.00   0.01  0.00  0.00  0.54  0.00  0.45  0.00  0.00  0.00
  WS02001213WS02003059    1.00   0.00  0.00  0.00  1.00  0.00  0.00  0.00  0.00  0.00
  WS02003059WS02003060    1.00   0.00  0.00  0.00  1.00  0.00  0.00  0.00  0.03  0.00
  WS02003060WS02003069    1.00   0.00  0.00  0.00  0.99  0.01  0.00  0.00  0.36  0.00
  WS02003066WSF200        1.00   0.07  0.00  0.00  0.00  0.93  0.00  0.00  0.62  0.00
  WS02003067WS02003066    1.00   0.06  0.01  0.00  0.93  0.00  0.00  0.00  0.00  0.00
  WS02003069WS02003072    1.00   0.00  0.00  0.00  1.00  0.00  0.00  0.00  0.45  0.00
  WS02003072WS02003073    1.00   0.00  0.00  0.00  0.00  0.00  0.00  1.00  0.00  0.00
  WS02004138WS02004139    1.00   0.00  0.00  0.00  0.99  0.00  0.00  0.01  0.98  0.00
  WS02004139WS02001211    1.00   0.00  0.00  0.00  1.00  0.00  0.00  0.00  0.00  0.00
  WS02004401WS02004402    1.00   0.01  0.00  0.00  0.99  0.00  0.00  0.00  0.00  0.00
  WS02004402WS02004403    1.00   0.01  0.00  0.00  0.99  0.00  0.00  0.00  0.00  0.00
  WS02004403WS02004404    1.00   0.00  0.01  0.00  0.99  0.00  0.00  0.00  0.00  0.00
  WS02004404WS02004405    1.00   0.00  0.00  0.00  1.00  0.00  0.00  0.00  0.00  0.00
  WS02004405WS02004406    1.00   0.00  0.00  0.00  1.00  0.00  0.00  0.00  0.00  0.00
  WS02004406WS02004407    1.00   0.00  0.03  0.00  0.97  0.00  0.00  0.00  0.00  0.00
  WS02004407WS02004409    1.00   0.03  0.00  0.00  0.96  0.01  0.00  0.00  0.82  0.00
  WS02004409WS02004410    1.00   0.03  0.00  0.00  0.97  0.00  0.00  0.00  0.00  0.00
  WS02004410WS02004411    1.00   0.03  0.00  0.00  0.97  0.00  0.00  0.00  0.00  0.00
  WS02004411WS02004412    1.00   0.03  0.00  0.00  0.97  0.00  0.00  0.00  0.00  0.00
  WS02004412WS02004413    1.00   0.04  0.00  0.00  0.96  0.00  0.00  0.00  0.01  0.00
  WS02004413WS02003067    1.00   0.04  0.02  0.00  0.00  0.00  0.94  0.00  0.00  0.00
  WS02006109WS02006110    1.00   0.00  0.00  0.00  0.99  0.00  0.00  0.00  0.00  0.00
  WS02006110WS02006113    1.00   0.00  0.00  0.00  0.99  0.00  0.00  0.00  0.00  0.00
  WS02006111WS02006112    1.00   0.01  0.00  0.00  0.99  0.00  0.00  0.00  0.78  0.00
  WS02006112WS02006115    1.00   0.01  0.00  0.00  0.99  0.00  0.00  0.00  0.00  0.00
  WS02006113WS02006111    1.00   0.01  0.00  0.00  0.15  0.84  0.00  0.00  0.10  0.00
  WS02006115WS02006116    1.00   0.01  0.00  0.00  0.99  0.00  0.00  0.00  0.00  0.00
  WS02006116WS02004401    1.00   0.01  0.00  0.00  0.99  0.00  0.00  0.00  0.00  0.00
  WS02006228WS02006109    1.00   0.00  0.00  0.00  1.00  0.00  0.00  0.00  0.00  0.00
  WS02006229WS02006228    1.00   0.00  0.00  0.00  1.00  0.00  0.00  0.00  0.00  0.00
  WS02006230WS02006229    1.00   0.00  0.00  0.00  0.99  0.00  0.00  0.01  0.00  0.00
  WS02006231WS02006230    1.00   0.00  0.00  0.00  0.37  0.00  0.63  0.00  0.00  0.00
  WS02006232WS02006231    1.00   0.00  0.00  0.00  1.00  0.00  0.00  0.00  0.00  0.00
  WS02006234WS02006232    1.00   0.00  0.00  0.00  1.00  0.00  0.00  0.00  0.00  0.00
  WS02006235WS02006234    1.00   0.00  0.00  0.00  1.00  0.00  0.00  0.00  0.00  0.00
  WS02006238WS02006235    1.00   0.00  0.00  0.00  1.00  0.00  0.00  0.00  0.00  0.00
  WS02006239WS02006238    1.00   0.00  0.00  0.00  1.00  0.00  0.00  0.00  0.00  0.00
[...]
  WSF200WS02003060        1.00   0.00  0.07  0.00  0.62  0.31  0.00  0.00  0.46  0.00
  YS02001580YS02001583    1.00   0.17  0.64  0.00  0.20  0.00  0.00  0.00  0.66  0.00
  YS02001583YS02001586    1.00   0.41  0.34  0.00  0.25  0.00  0.00  0.00  0.66  0.00
  YS02001586YS02001590    1.00   0.08  0.00  0.00  0.44  0.04  0.00  0.44  0.32  0.00
  YS02001590YS02001593    1.00   0.08  0.00  0.00  0.10  0.00  0.81  0.00  0.00  0.00
  YS02001593YS02001596    1.00   0.09  0.00  0.00  0.16  0.02  0.00  0.73  0.04  0.00
  YS02001596YS02001600    1.00   0.09  0.00  0.00  0.27  0.01  0.00  0.63  0.06  0.00
  YS02001600YS02001601    1.00   0.08  0.01  0.00  0.91  0.00  0.00  0.00  0.55  0.00
  YS02001601YS02001602    1.00   0.08  0.01  0.00  0.91  0.00  0.00  0.00  0.00  0.00
  YS02001602YS02001605    1.00   0.09  0.00  0.00  0.91  0.00  0.00  0.00  0.00  0.00
  YS02001605YS02001607    1.00   0.09  0.00  0.00  0.91  0.00  0.00  0.00  0.00  0.00
  YS02001607YS02001610    1.00   0.09  0.00  0.00  0.91  0.00  0.00  0.00  0.01  0.00
  YS02001610YS02001613    1.00   0.08  0.00  0.00  0.92  0.00  0.00  0.00  0.00  0.00
  YS02001613YS02001616    1.00   0.08  0.00  0.00  0.92  0.00  0.00  0.00  0.00  0.00
  YS02001616YS02001619    1.00   0.08  0.00  0.00  0.92  0.00  0.00  0.00  0.00  0.00
  YS02001619YS02001622    1.00   0.08  0.00  0.00  0.92  0.00  0.00  0.00  0.33  0.00
  YS02001622YS02001625    1.00   0.08  0.00  0.00  0.92  0.00  0.00  0.00  0.04  0.00
  YS02001625YS02001629    1.00   0.08  0.03  0.00  0.29  0.00  0.60  0.00  0.00  0.00
  YS02001629YS02163301    1.00   0.10  0.01  0.00  0.89  0.00  0.00  0.00  0.00  0.00
  YS02001633YS02163601    1.00   0.00  0.00  0.00  1.00  0.00  0.00  0.00  0.15  0.00
  YS02001641YS02001644    1.00   0.00  0.00  0.00  1.00  0.00  0.00  0.00  0.00  0.00
  YS02001644YS02001647    1.00   0.00  0.11  0.00  0.89  0.00  0.00  0.00  0.00  0.00
  YS02001647YS02001649    1.00   0.00  0.11  0.00  0.87  0.02  0.00  0.00  0.47  0.00
  YS02001649YS02001757    1.00   0.00  0.00  0.00  0.97  0.03  0.00  0.00  0.44  0.00
  YS02001652YS02001649    1.00   0.00  0.00  0.00  0.98  0.02  0.00  0.00  0.57  0.00
  YS02001655YS02001652    1.00   0.00  0.00  0.00  0.42  0.01  0.00  0.57  0.06  0.00
  YS02001658YS02001655    1.00   0.00  0.09  0.00  0.83  0.08  0.00  0.00  0.56  0.00
  YS02001661YS02001658    1.00   0.09  0.00  0.00  0.70  0.21  0.00  0.00  0.57  0.00
  YS02001664YS02001661    1.00   0.08  0.00  0.00  0.87  0.05  0.00  0.00  0.85  0.00
  YS02001745YS02001748    1.00   0.00  0.00  0.00  0.23  0.00  0.00  0.76  0.05  0.00
  YS02001748YS02001751    1.00   0.00  0.00  0.00  0.92  0.08  0.00  0.00  0.63  0.00
  YS02001751YS02001754    1.00   0.00  0.00  0.00  0.38  0.01  0.00  0.61  0.04  0.00
  YS02001754YS02001757    1.00   0.00  0.00  0.00  1.00  0.00  0.00  0.00  0.64  0.00
  YS02001757CaochengTiaoxuchi    1.00   0.00  0.00  0.00  1.00  0.00  0.00  0.00  0.51  0.00
  YS02001759YS02001757    1.00   0.00  0.00  0.00  0.99  0.01  0.00  0.00  0.40  0.00
  YS02001762YS02001759    1.00   0.00  0.00  0.00  1.00  0.00  0.00  0.00  0.05  0.00
  YS02001765YS02001762    1.00   0.00  0.00  0.00  1.00  0.00  0.00  0.00  0.51  0.00
  YS02001767YS02001765    1.00   0.00  0.00  0.00  1.00  0.00  0.00  0.00  0.02  0.00
  YS02001770YS02001767    1.00   0.00  0.00  0.00  1.00  0.00  0.00  0.00  0.00  0.00
  YS02001774YS02001770    1.00   0.00  0.09  0.00  0.72  0.00  0.19  0.00  0.03  0.00
  YS02001779YS02001774    1.00   0.00  0.00  0.00  1.00  0.00  0.00  0.00  0.62  0.00
  YS02001783YS02001784    1.00   0.00  0.11  0.00  0.89  0.00  0.00  0.00  0.57  0.00
  YS02001784YS02001785    1.00   0.00  0.00  0.00  1.00  0.00  0.00  0.00  0.16  0.00
  YS02001786YS02001788    1.00   0.00  0.00  0.00  0.79  0.21  0.00  0.00  0.00  0.00
  YS02001788YS02001790    1.00   0.00  0.00  0.00  0.14  0.86  0.00  0.00  0.80  0.00
  YS02001790YS02001791    1.00   0.00  0.00  0.00  0.02  0.98  0.00  0.00  0.16  0.00
  YS02001791YS02001793    1.00   0.00  0.00  0.00  0.01  0.98  0.00  0.00  0.01  0.00
  YS02001793JiankangQianchi    1.00   0.00  0.00  0.00  0.99  0.01  0.00  0.00  0.95  0.00
  YS02001882YS02001884    1.00   0.10  0.00  0.00  0.90  0.00  0.00  0.00  0.00  0.00
  YS02001884YS02001887    1.00   0.04  0.03  0.00  0.93  0.00  0.00  0.00  0.00  0.00
  YS02001887YS02001890    1.00   0.00  0.00  0.00  0.99  0.00  0.01  0.00  0.00  0.00
  YS02001890YS02001895    1.00   0.00  0.10  0.00  0.89  0.00  0.00  0.00  0.00  0.00
  YS02001895YS02001898    1.00   0.11  0.00  0.00  0.88  0.00  0.01  0.00  0.00  0.00
  YS02001898YS02001901    1.00   0.11  0.00  0.00  0.89  0.00  0.00  0.00  0.01  0.00
  YS02001901YS02001904    1.00   0.11  0.00  0.00  0.89  0.00  0.00  0.00  0.00  0.00
  YS02001904YS02001907    1.00   0.00  0.10  0.00  0.89  0.00  0.00  0.00  0.00  0.00
  YS02001907YS02006553    1.00   0.00  0.01  0.00  0.99  0.00  0.00  0.00  0.00  0.00
  YS02001910YS02001907    1.00   0.00  0.00  0.00  0.99  0.00  0.00  0.01  0.12  0.00
  YS02001915YS02001910    1.00   0.00  0.00  0.00  0.98  0.02  0.00  0.00  0.14  0.00
  YS02001918YS02001915    1.00   0.00  0.00  0.00  0.99  0.01  0.00  0.00  0.76  0.00
  YS02001920YS02001918    1.00   0.00  0.00  0.00  1.00  0.00  0.00  0.00  0.00  0.00
  YS02001923YS02001920    1.00   0.00  0.00  0.00  1.00  0.00  0.00  0.00  0.93  0.00
  YS02001926YS02001923    1.00   0.00  0.05  0.00  0.03  0.00  0.92  0.00  0.00  0.00
  YS02001929YS02001926    1.00   0.00  0.08  0.00  0.92  0.00  0.00  0.00  0.82  0.00
  YS02006553YS02006556    1.00   0.01  0.00  0.00  0.99  0.00  0.00  0.00  0.03  0.00
  YS02006556YS02006558    1.00   0.00  0.00  0.00  1.00  0.00  0.00  0.00  0.00  0.00
  YS02006558YS02006561    1.00   0.11  0.00  0.00  0.03  0.85  0.00  0.00  0.18  0.00
  YS02006561YS02001783    1.00   0.11  0.00  0.00  0.05  0.83  0.00  0.00  0.70  0.00
  YS02163301YS02001633    1.00   0.00  0.10  0.00  0.90  0.00  0.00  0.00  0.00  0.00
  YS02163601YS02164001    1.00   0.00  0.05  0.00  0.95  0.00  0.00  0.00  0.00  0.00
  YS02164001YS02001641    1.00   0.00  0.05  0.00  0.95  0.00  0.00  0.00  0.05  0.00
  YSB1154YSB6556          1.00   0.08  0.00  0.00  0.92  0.00  0.00  0.00  0.02  0.00
  YSB1171HS02004479       1.00   0.02  0.00  0.00  0.97  0.00  0.00  0.01  0.10  0.00
  YSB1174YSB1171          1.00   0.03  0.03  0.00  0.94  0.00  0.00  0.00  0.00  0.00
  YSB6556YSB1171          1.00   0.02  0.06  0.00  0.92  0.00  0.00  0.00  0.00  0.00
  
  
  *************************
  Conduit Surcharge Summary
  *************************
  
  ----------------------------------------------------------------------------
                                                           Hours        Hours 
                         --------- Hours Full --------   Above Full   Capacity
  Conduit                Both Ends  Upstream  Dnstream   Normal Flow   Limited
  ----------------------------------------------------------------------------
  HS02004478WS02006287        0.49      0.49      0.66      0.01         0.01
  HS02004479HS02004480        0.67      0.67      0.69      0.01         0.01
  HS02004480HS02004478        0.60      0.66      0.60      1.72         0.60
  HS02004770HS02004777        0.57      0.57      0.57      0.11         0.07
  HS02004777HS02004785        0.52      0.52      0.57      0.01         0.01
  HS02004785HS02004788        0.51      0.52      0.51      1.50         0.48
  HS02004788HS02004792        0.51      0.51      0.63      0.01         0.01
  HS02004792HS02004799        0.63      0.63      0.76      0.01         0.01
  HS02004799HS02004480        0.66      0.66      0.76      0.87         0.01
  HS02004802HS02004478        0.61      0.61      0.68      0.09         0.01
  HS02004807HS02004802        0.64      0.64      0.67      0.23         0.24
  HS02004817HS02004807        0.64      0.64      1.29      0.01         0.01
  HS02004817HS02004824        0.51      0.51      1.29      0.01         0.01
  HS02004824HS02004830        0.48      0.48      0.51      0.01         0.01
  HS02004830HS02004837        0.44      0.44      0.48      0.01         0.01
  HS02004837HS02004842        0.44      0.44      0.57      0.01         0.01
  HS02004842HS02004848        0.40      0.40      0.57      0.01         0.01
  HS02004848HS02004852        0.40      0.40      0.43      0.03         0.01
  HS02004852HS02004856        0.42      0.43      0.44      0.02         0.01
  HS02004856HS02004862        0.41      0.41      0.45      0.01         0.01
  HS02004862HS02004870        0.45      0.45      0.47      0.21         0.19
  HS02004870HS02004876        0.47      0.47      0.50      0.01         0.01
  HS02004876HS02004881        0.47      0.50      0.47      1.51         0.47
  HS02004881HS02006253        0.47      0.47      1.44      0.01         0.01
  HS02004901HS02004770        0.57      0.57      0.58      0.01         0.01
  WS02003072WS02003073        0.01      0.01      0.01      3.53         0.01
  WS02004401WS02004402        1.52      1.52      1.54      1.40         1.39
  WS02004402WS02004403        1.54      1.54      1.55      1.52         1.51
  WS02004403WS02004404        1.55      1.55      1.64      0.01         0.02
  WS02004404WS02004405        1.62      1.64      1.62      4.57         1.62
  WS02004405WS02004406        1.60      1.62      1.60      1.87         1.60
  WS02004406WS02004407        0.01      0.01      1.60      0.01         0.01
  WS02004407WS02004409        0.01      0.01      1.05      0.01         0.01
  WS02004409WS02004410        1.00      1.05      1.00      1.45         1.00
  WS02004410WS02004411        0.88      1.00      0.88      1.49         0.88
  WS02004411WS02004412        0.78      0.88      0.78      1.52         0.78
  WS02004412WS02004413        0.78      0.78      1.37      0.01         0.01
  WS02004413WS02003067        0.01      0.01      1.37      0.01         0.01
  WS02006109WS02006110        1.81      1.81      2.32      1.82         0.01
  WS02006110WS02006113        1.31      1.31      2.29      0.24         0.01
  WS02006111WS02006112        1.26      1.26      2.98      0.01         0.01
  WS02006112WS02006115        1.46      1.46      1.95      0.01         0.01
  WS02006113WS02006111        1.28      1.31      1.28      1.38         1.28
  WS02006115WS02006116        1.47      1.47      1.47      1.45         1.44
  WS02006116WS02004401        1.52      1.52      1.52      1.50         1.49
  WS02006228WS02006109        2.25      2.33      2.25      3.76         2.25
  WS02006229WS02006228        2.24      2.27      2.24      2.86         2.24
  WS02006230WS02006229        2.46      2.68      2.46      4.44         1.30
  WS02006231WS02006230        1.61      1.61      1.71      4.19         1.05
  WS02006232WS02006231        1.69      1.69      2.10      0.01         0.16
  WS02006234WS02006232        1.83      1.83      2.10      0.01         0.01
  WS02006235WS02006234        1.78      1.79      1.85      3.95         1.03
  WS02006238WS02006235        1.89      1.89      2.01      0.01         0.34
  WS02006239WS02006238        1.93      1.95      1.94      1.35         0.26
  WS02006240WS02006239        1.79      1.82      1.81      1.27         0.16
  WS02006242WS02006240        1.78      1.78      2.06      1.98         0.87
  WS02006243WS02006242        1.77      1.77      1.94      0.01         0.01
  WS02006245WS02006243        1.71      1.72      1.74      0.48         0.15
  WS02006247WS02006245        1.69      1.76      1.69      3.56         0.49
  WS02006248WS02006247        1.66      1.66      1.73      0.01         0.01
  WS02006249WS02006248        1.64      1.64      1.68      2.26         0.01
  WS02006251WS02006249        1.67      1.68      1.68      1.76         1.40
  WS02006252WS02006251        1.95      1.95      2.01      0.75         0.01
  WS02006253WS02006251        1.66      1.67      1.71      0.78         0.01
  WS02006256WS02006235        4.38      4.39      7.97      0.23         0.01
  WS02006280WS02006229        0.78      0.78      0.96      0.01         0.01
  WS02006284WS02006280        0.69      0.69      0.77      0.01         0.01
  WS02006287WS02006284        0.59      0.59      0.70      0.27         0.26
  YS02001580YS02001583        0.56      0.56      0.61      0.01         0.01
  YS02001583YS02001586        0.56      0.56      0.79      0.01         0.01
  YS02001586YS02001590        0.79      0.79      0.89      0.01         0.01
  YS02001590YS02001593        0.90      0.90      0.92      0.86         0.01
  YS02001593YS02001596        0.91      0.91      1.10      0.01         0.01
  YS02001596YS02001600        1.24      1.24      1.42      0.01         0.01
  YS02001600YS02001601        1.51      1.51      1.89      0.01         0.01
  YS02001601YS02001602        1.80      1.80      1.92      1.05         0.01
  YS02001602YS02001605        1.77      1.77      1.80      2.25         0.01
  YS02001605YS02001607        1.73      1.77      1.78      1.38         1.27
  YS02001607YS02001610        1.20      1.20      1.28      0.01         0.01
  YS02001610YS02001613        1.21      1.21      1.28      0.01         0.01
  YS02001613YS02001616        1.14      1.14      1.21      0.01         0.01
  YS02001616YS02001619        1.12      1.12      1.14      0.01         0.01
  YS02001619YS02001622        1.12      1.12      1.14      0.63         0.56
  YS02001622YS02001625        1.14      1.14      1.49      0.01         0.01
  YS02001625YS02001629        1.03      1.03      1.49      0.01         0.01
  YS02001629YS02163301        1.55      1.55      1.58      0.06         0.06
  YS02001633YS02163601        1.63      1.63      1.70      0.09         0.10
  YS02001641YS02001644        1.62      1.63      1.62      1.42         1.10
  YS02001644YS02001647        1.39      1.39      1.62      0.03         0.01
  YS02001647YS02001649        1.39      1.39      1.61      0.01         0.01
  YS02001649YS02001757        1.60      1.61      1.79      0.08         0.03
  YS02001652YS02001649        1.39      1.39      1.61      0.01         0.01
  YS02001655YS02001652        1.02      1.02      1.35      0.01         0.01
  YS02001658YS02001655        0.24      0.24      1.02      0.01         0.01
  YS02001661YS02001658        0.01      0.01      0.24      0.01         0.01
  YS02001664YS02001661        0.01      0.01      0.05      0.01         0.01
  YS02001745YS02001748        0.01      0.01      0.16      0.01         0.01
  YS02001748YS02001751        0.20      0.20      0.86      0.01         0.01
  YS02001751YS02001754        0.86      0.86      1.31      0.01         0.01
  YS02001754YS02001757        1.36      1.36      1.79      0.01         0.01
  YS02001757CaochengTiaoxuchi        1.79      1.79      3.08      0.26         0.24
  YS02001759YS02001757        1.62      1.62      1.79      0.01         0.01
  YS02001762YS02001759        1.58      1.58      1.62      0.01         0.02
  YS02001765YS02001762        1.53      1.53      1.58      0.01         0.01
  YS02001767YS02001765        1.49      1.49      1.53      0.01         0.02
  YS02001770YS02001767        1.49      1.49      1.49      0.46         0.45
  YS02001774YS02001770        1.46      1.46      1.56      0.01         0.01
  YS02001779YS02001774        1.27      1.27      1.56      0.01         0.01
  YS02001783YS02001784        0.47      0.49      0.47      0.62         0.47
  YS02001784YS02001785        0.39      0.47      0.39      0.85         0.39
  YS02001786YS02001788        0.09      0.39      0.09      0.71         0.09
  YS02001788YS02001790        0.09      0.09      0.12      0.01         0.01
  YS02001790YS02001791        0.11      0.12      0.11      0.45         0.07
  YS02001791YS02001793        0.11      0.11      0.19      0.01         0.01
  YS02001793JiankangQianchi        0.16      0.16      7.67      0.01         0.01
  YS02001882YS02001884        0.44      0.44      0.45      0.01         0.01
  YS02001884YS02001887        0.46      0.46      0.48      0.01         0.01
  YS02001887YS02001890        0.48      0.48      0.50      0.08         0.01
  YS02001890YS02001895        0.43      0.43      0.51      0.01         0.01
  YS02001895YS02001898        0.42      0.42      0.43      0.01         0.01
  YS02001898YS02001901        0.43      0.43      0.46      0.01         0.01
  YS02001901YS02001904        0.46      0.46      0.46      0.01         0.01
  YS02001904YS02001907        0.46      0.46      0.70      0.01         0.01
  YS02001907YS02006553        0.85      0.85      0.91      0.01         0.01
  YS02001910YS02001907        0.51      0.51      0.68      0.01         0.01
  YS02001915YS02001910        0.44      0.44      0.51      0.01         0.01
  YS02001918YS02001915        0.37      0.37      0.44      0.01         0.01
  YS02001920YS02001918        0.37      0.37      0.38      0.01         0.01
  YS02001923YS02001920        0.28      0.28      0.38      0.01         0.01
  YS02001926YS02001923        0.03      0.03      0.04      0.01         0.01
  YS02001929YS02001926        0.01      0.01      0.04      0.01         0.01
  YS02006553YS02006556        0.59      0.59      0.70      0.01         0.01
  YS02006556YS02006558        0.64      0.64      0.71      0.01         0.01
  YS02006558YS02006561        0.40      0.58      0.40      0.79         0.40
  YS02006561YS02001783        0.37      0.37      0.49      0.01         0.01
  YS02163301YS02001633        1.58      1.58      1.65      0.01         0.01
  YS02163601YS02164001        1.62      1.62      1.70      0.07         0.01
  YS02164001YS02001641        1.62      1.62      1.63      0.53         0.47
  YSB1154YSB6556              0.73      0.73      0.89      0.01         0.01
  YSB1171HS02004479           0.62      0.62      0.90      0.01         0.01
  YSB1174YSB1171              0.79      0.79      1.19      0.01         0.01
  YSB6556YSB1171              0.73      0.73      1.40      0.01         0.01
  
  
  ***************
  Pumping Summary
  ***************
  
  ---------------------------------------------------------------------------------------------------------
                                                  Min       Avg       Max     Total     Power    % Time Off
                        Percent   Number of      Flow      Flow      Flow    Volume     Usage    Pump Curve
  Pump                 Utilized   Start-Ups       LPS       LPS       LPS  10^6 ltr     Kw-hr    Low   High
  ---------------------------------------------------------------------------------------------------------
  CC-R1                   39.60           6      0.00    339.59    683.00     3.733     73.48    0.0   53.8
  CC-R2                   86.03           7      0.00    132.31    683.00     2.983     56.33    0.0   75.2
  CC-S1                   52.68           6      0.00    126.69    200.00     1.761      9.17    0.0   26.6
  CC-S2                   86.88          10      0.00     63.76    200.00     1.570      7.45    0.0   16.1
  JK-R1                   21.77          12      0.00    188.69   1000.00     1.530     18.15    0.0    0.0
  JK-R2                   16.43          11      0.00    234.16   1000.00     1.346     15.10    0.0    0.0
  JK-S                    25.04          17      0.00     81.71    300.00     0.744      9.09    0.0    0.0
  XR-1                    97.91           2      0.00     95.00     95.00     2.679      9.64    0.0    0.0
  XR-2                    93.95           2      0.00     95.00     95.00     2.571      8.80    0.0    0.0
  XR-3                     0.00           1      0.00     95.00     95.00     0.000      0.00    0.0    0.0
  XR-4                     0.00           1      0.00     95.00     95.00     0.000      0.00    0.0    0.0
  

  Analysis begun on:  Tue Jul 11 12:16:32 2023
  Analysis ended on:  Tue Jul 11 12:16:54 2023
  Total elapsed time: 00:00:22