
  OWA STORM WATER MANAGEMENT MODEL - VERSION v5.1.14 (OWA 2022-07-31)
  --------------------------------------------------------------

  WARNING 04: minimum elevation drop used for Conduit WS02004404WS02004405
  WARNING 03: negative offset ignored for Link YS02001904YS02001907
  
  *********************************************************
  NOTE: The summary statistics displayed in this report are
  based on results found at every computational time step,  
  not just on results from each reporting time step.
  *********************************************************
  
  ****************
  Analysis Options
  ****************
  Flow Units ............... LPS
  Process Models:
    Rainfall/Runoff ........ YES
    RDII ................... NO
    Snowmelt ............... NO
    Groundwater ............ NO
    Flow Routing ........... YES
    Ponding Allowed ........ NO
    Water Quality .......... NO
  Infiltration Method ...... HORTON
  Flow Routing Method ...... DYNWAVE
  Surcharge Method ......... EXTRAN
  Starting Date ............ 08/28/2015 08:00:00
  Ending Date .............. 08/28/2015 16:00:00
  Antecedent Dry Days ...... 8.0
  Report Time Step ......... 00:01:00
  Wet Time Step ............ 00:01:00
  Dry Time Step ............ 00:01:00
  Routing Time Step ........ 30.00 sec
  Variable Time Step ....... YES
  Maximum Trials ........... 8
  Number of Threads ........ 2
  Head Tolerance ........... 0.001500 m
  
  
  **************************        Volume         Depth
  Runoff Quantity Continuity     hectare-m            mm
  **************************     ---------       -------
  Initial LID Storage ......         0.072         1.184
  Total Precipitation ......         4.378        72.264
  Evaporation Loss .........         0.000         0.000
  Infiltration Loss ........         0.212         3.500
  Surface Runoff ...........         3.382        55.821
  Final Storage ............         0.857        14.151
  Continuity Error (%) .....        -0.032
  
  
  **************************        Volume        Volume
  Flow Routing Continuity        hectare-m      10^6 ltr
  **************************     ---------     ---------
  Dry Weather Inflow .......         0.630         6.296
  Wet Weather Inflow .......         3.381        33.815
  Groundwater Inflow .......         0.000         0.000
  RDII Inflow ..............         0.000         0.000
  External Inflow ..........         0.105         1.045
  External Outflow .........         2.620        26.196
  Flooding Loss ............         1.485        14.848
  Evaporation Loss .........         0.000         0.000
  Exfiltration Loss ........         0.000         0.000
  Initial Stored Volume ....         0.303         3.031
  Final Stored Volume ......         0.321         3.207
  Continuity Error (%) .....        -0.144
  
  
  *************************
  Highest Continuity Errors
  *************************
  Node YS02001884 (5.17%)
  Node YS02001583 (-4.55%)
  Node HS02004842 (1.77%)
  Node YS02001774 (1.13%)
  
  
  ***************************
  Time-Step Critical Elements
  ***************************
  Link WS02006280WS02006229 (51.72%)
  Link WS02006252WS02006251 (20.06%)
  Link YS02001791YS02001793 (6.47%)
  Link WS02006238WS02006235 (4.83%)
  Link WS02004404WS02004405 (4.58%)
  
  
  ********************************
  Highest Flow Instability Indexes
  ********************************
  Link WS02006113WS02006111 (23)
  Link WS02004404WS02004405 (21)
  Link WS02006252WS02006251 (20)
  Link WS02006238WS02006235 (19)
  Link WS02006256WS02006235 (18)
  
  
  *************************
  Routing Time Step Summary
  *************************
  Minimum Time Step           :     0.00 sec
  Average Time Step           :     2.43 sec
  Maximum Time Step           :     6.46 sec
  Percent in Steady State     :    -0.00
  Average Iterations per Step :     3.38
  Percent Not Converging      :    13.49
  
  
  ***************************
  Subcatchment Runoff Summary
  ***************************
  
  ------------------------------------------------------------------------------------------------------------------------------
                            Total      Total      Total      Total     Imperv       Perv      Total       Total     Peak  Runoff
                           Precip      Runon       Evap      Infil     Runoff     Runoff     Runoff      Runoff   Runoff   Coeff
  Subcatchment                 mm         mm         mm         mm         mm         mm         mm    10^6 ltr      LPS
  ------------------------------------------------------------------------------------------------------------------------------
  sub0                      72.26       0.00       0.00       1.02      65.96       4.04      70.00        0.06    42.33   0.969
  sub1                      72.26       0.00       0.00       1.56      56.53       5.57      62.10        0.41   272.41   0.859
  sub10                     72.26       0.00       0.00       0.99      52.98       3.71      56.69        0.63   424.90   0.784
  sub11                     72.26       0.00       0.00       0.90      49.24       3.46      52.70        0.61   436.06   0.729
  sub12                     72.26       0.00       0.00       1.58      50.06       6.04      56.10        0.49   365.28   0.776
  sub14                     72.26       0.00       0.00       0.98      46.63       3.72      50.35        0.48   337.74   0.697
  sub15                     72.26       0.00       0.00       4.52      41.92      13.80      55.72        0.96   624.85   0.771
  sub16                     72.26       0.00       0.00       4.77      40.89      15.75      56.64        0.59   417.47   0.784
  sub17                     72.26       0.00       0.00       5.12      45.13      16.53      61.66        0.53   364.61   0.853
  sub2                      72.26       0.00       0.00       7.17      41.33      17.59      58.91        0.55   302.80   0.815
  sub22                     72.26       0.00       0.00       8.03      39.13      22.06      61.19        3.87  2374.61   0.847
  sub23                     72.26       0.00       0.00       6.02      40.30      18.10      58.40        2.79  1828.90   0.808
  sub3                      72.26       0.00       0.00       7.70      40.93      16.84      57.77        1.30   658.08   0.799
  sub4                      72.26       0.00       0.00       1.71      55.69       5.32      61.01        1.27   687.92   0.844
  sub5                      72.26       0.00       0.00       0.88      54.69       3.32      58.01        0.66   438.76   0.803
  sub60                     72.26       0.00       0.00       1.41      48.16       5.28      53.44        0.70   504.11   0.740
  sub61                     72.26       0.00       0.00       2.17      48.11       7.87      55.99        1.03   738.21   0.775
  sub62                     72.26       0.00       0.00       0.96      51.29       3.59      54.88        1.50  1016.47   0.759
  sub63                     72.26       0.00       0.00       4.00      41.21      13.15      54.36        1.23   855.43   0.752
  sub64                     72.26       0.00       0.00       1.92      46.92       6.53      53.45        1.28   837.99   0.740
  sub65                     72.26       0.00       0.00       1.76      50.65       5.96      56.61        1.56   980.65   0.783
  sub66                     72.26       0.00       0.00       4.72      39.85      11.90      51.75        2.41  1316.96   0.716
  sub67                     72.26       0.00       0.00       0.95      52.58       3.71      56.30        1.05   772.09   0.779
  sub68                     72.26       0.00       0.00       1.67      46.44       6.04      52.48        1.44  1011.13   0.726
  sub69                     72.26       0.00       0.00       1.55      48.60       7.04      55.64        2.06  1266.52   0.770
  sub7                      72.26       0.00       0.00       1.04      49.98       4.00      53.98        0.18   131.22   0.747
  sub70                     72.26       0.00       0.00       5.26      38.94      14.86      53.79        1.55   763.24   0.744
  sub71                     72.26       0.00       0.00       0.89      46.60       3.25      49.84        1.30   842.86   0.690
  sub72                     72.26       0.00       0.00       0.85      50.34       3.02      53.36        0.73   437.25   0.738
  sub8                      72.26       0.00       0.00       1.02      48.57       3.88      52.45        0.34   237.12   0.726
  sub9                      72.26       0.00       0.00       0.99      47.09       3.76      50.84        0.24   172.82   0.704
  

  ***********************
  LID Performance Summary
  ***********************

  --------------------------------------------------------------------------------------------------------------------
                                         Total      Evap     Infil   Surface    Drain    Initial     Final  Continuity
                                        Inflow      Loss      Loss   Outflow   Outflow   Storage   Storage       Error
  Subcatchment      LID Control             mm        mm        mm        mm        mm        mm        mm           %
  --------------------------------------------------------------------------------------------------------------------
  sub1              GreenRoof            72.26      0.00      0.00      0.00      0.00      7.05     79.37       -0.07
  sub10             GreenRoof            72.26      0.00      0.00      0.00      0.00      7.05     79.37       -0.07
  sub11             GreenRoof            72.26      0.00      0.00      0.00      0.00      7.05     79.37       -0.07
  sub12             GreenRoof            72.26      0.00      0.00      0.00      0.00      7.05     79.37       -0.07
  sub14             GreenRoof            72.26      0.00      0.00      0.00      0.00      7.05     79.37       -0.07
  sub15             GreenRoof            72.26      0.00      0.00      0.00      0.00      7.05     79.37       -0.07
  sub16             GreenRoof            72.26      0.00      0.00      0.00      0.00      7.05     79.37       -0.07
  sub17             GreenRoof            72.26      0.00      0.00      0.00      0.00      7.05     79.37       -0.07
  sub2              GreenRoof            72.26      0.00      0.00      0.00      0.00      7.05     79.37       -0.07
  sub22             GreenRoof            72.26      0.00      0.00      0.00      0.00      7.05     79.37       -0.07
  sub23             GreenRoof            72.26      0.00      0.00      0.00      0.00      7.05     79.37       -0.07
  sub3              GreenRoof            72.26      0.00      0.00      0.00      0.00      7.05     79.37       -0.07
  sub4              GreenRoof            72.26      0.00      0.00      0.00      0.00      7.05     79.37       -0.07
  sub5              GreenRoof            72.26      0.00      0.00      0.00      0.00      7.05     79.37       -0.07
  sub60             GreenRoof            72.26      0.00      0.00      0.00      0.00      7.05     79.37       -0.07
  sub61             GreenRoof            72.26      0.00      0.00      0.00      0.00      7.05     79.37       -0.07
  sub62             GreenRoof            72.26      0.00      0.00      0.00      0.00      7.05     79.37       -0.07
  sub63             GreenRoof            72.26      0.00      0.00      0.00      0.00      7.05     79.37       -0.07
  sub64             GreenRoof            72.26      0.00      0.00      0.00      0.00      7.05     79.37       -0.07
  sub65             GreenRoof            72.26      0.00      0.00      0.00      0.00      7.05     79.37       -0.07
  sub66             GreenRoof            72.26      0.00      0.00      0.00      0.00      7.05     79.37       -0.07
  sub67             GreenRoof            72.26      0.00      0.00      0.00      0.00      7.05     79.37       -0.07
  sub68             GreenRoof            72.26      0.00      0.00      0.00      0.00      7.05     79.37       -0.07
  sub69             GreenRoof            72.26      0.00      0.00      0.00      0.00      7.05     79.37       -0.07
  sub7              GreenRoof            72.26      0.00      0.00      0.00      0.00      7.05     79.37       -0.07
  sub70             GreenRoof            72.26      0.00      0.00      0.00      0.00      7.05     79.37       -0.07
  sub71             GreenRoof            72.26      0.00      0.00      0.00      0.00      7.05     79.37       -0.07
  sub72             GreenRoof            72.26      0.00      0.00      0.00      0.00      7.05     79.37       -0.07
  sub8              GreenRoof            72.26      0.00      0.00      0.00      0.00      7.05     79.37       -0.07
  sub9              GreenRoof            72.26      0.00      0.00      0.00      0.00      7.05     79.37       -0.07
  
  ******************
  Node Depth Summary
  ******************
  
  ---------------------------------------------------------------------------------
                                 Average  Maximum  Maximum  Time of Max    Reported
                                   Depth    Depth      HGL   Occurrence   Max Depth
  Node                 Type       Meters   Meters   Meters  days hr:min      Meters
  ---------------------------------------------------------------------------------
  HS02004478           JUNCTION     0.25     1.59    10.81     0  02:23        1.58
  HS02004479           JUNCTION     0.34     1.70    10.90     0  02:16        1.66
  HS02004480           JUNCTION     0.30     1.67    10.91     0  02:16        1.63
  HS02004770           JUNCTION     0.30     1.42    11.25     0  02:12        1.42
  HS02004777           JUNCTION     0.33     1.48    11.28     0  02:12        1.48
  HS02004785           JUNCTION     0.22     1.49    11.39     0  02:15        1.49
  HS02004788           JUNCTION     0.18     1.39    11.29     0  02:12        1.38
  HS02004792           JUNCTION     0.24     1.60    11.12     0  02:15        1.60
  HS02004799           JUNCTION     0.37     1.76    10.97     0  02:16        1.76
  HS02004802           JUNCTION     0.36     1.80    10.93     0  02:26        1.80
  HS02004807           JUNCTION     0.33     1.92    11.09     0  02:15        1.92
  HS02004817           JUNCTION     0.63     2.41    11.26     0  02:24        2.41
  HS02004824           JUNCTION     0.19     2.01    11.41     0  02:24        2.01
  HS02004830           JUNCTION     0.19     1.99    11.46     0  02:24        1.99
  HS02004837           JUNCTION     0.16     1.92    11.50     0  02:24        1.92
  HS02004842           JUNCTION     0.45     2.22    11.49     0  02:16        2.22
  HS02004848           JUNCTION     0.14     2.04    11.64     0  02:16        1.92
  HS02004852           JUNCTION     0.15     2.02    11.53     0  02:16        1.98
  HS02004856           JUNCTION     0.21     2.03    11.46     0  02:24        2.03
  HS02004862           JUNCTION     0.16     2.00    11.38     0  02:24        2.00
  HS02004870           JUNCTION     0.15     2.01    11.29     0  02:24        2.01
  HS02004876           JUNCTION     0.21     2.10    11.13     0  02:24        2.10
  HS02004881           JUNCTION     0.14     1.83    10.86     0  02:24        1.83
  HS02004901           JUNCTION     0.31     1.42    11.24     0  02:12        1.42
  WS02001211           JUNCTION     0.64     0.82     5.66     0  02:28        0.82
  WS02001212           JUNCTION     0.38     0.58     5.64     0  02:28        0.58
  WS02001213           JUNCTION     0.60     0.88     5.64     0  02:27        0.88
  WS02003059           JUNCTION     0.66     0.94     5.63     0  02:26        0.94
  WS02003060           JUNCTION     0.39     0.69     5.62     0  02:26        0.69
  WS02003066           JUNCTION     0.23     0.46     6.01     0  02:25        0.46
  WS02003067           JUNCTION     0.55     0.89     6.21     0  02:24        0.89
  WS02003069           JUNCTION     0.44     0.79     5.37     0  02:27        0.79
  WS02003072           JUNCTION     0.49     0.82     5.19     0  02:27        0.82
  WS02003073           JUNCTION     0.30     0.52     4.58     0  02:27        0.52
  WS02004138           JUNCTION     0.13     0.14     7.39     0  00:29        0.14
  WS02004139           JUNCTION     0.57     0.75     5.66     0  02:28        0.75
  WS02004401           JUNCTION     0.79     1.96     7.96     0  02:15        1.93
  WS02004402           JUNCTION     0.80     2.40     8.36     0  02:15        2.40
  WS02004403           JUNCTION     0.80     2.18     8.11     0  02:15        2.18
  WS02004404           JUNCTION     0.86     1.92     7.77     0  02:15        1.92
  WS02004405           JUNCTION     0.85     1.79     7.64     0  02:15        1.77
  WS02004406           JUNCTION     0.84     1.68     7.51     0  02:15        1.68
  WS02004407           JUNCTION     0.27     0.98     7.29     0  02:25        0.98
  WS02004409           JUNCTION     0.55     1.42     7.19     0  02:25        1.41
  WS02004410           JUNCTION     0.55     1.32     7.04     0  02:25        1.31
  WS02004411           JUNCTION     0.55     1.22     6.90     0  02:25        1.22
  WS02004412           JUNCTION     0.55     1.12     6.76     0  02:25        1.12
  WS02004413           JUNCTION     0.69     1.15     6.62     0  02:24        1.15
  WS02006109           JUNCTION     1.01     2.64     9.26     0  02:13        2.64
  WS02006110           JUNCTION     0.94     2.42     9.00     0  02:24        2.41
  WS02006111           JUNCTION     0.45     1.81     8.52     0  02:24        1.81
  WS02006112           JUNCTION     1.00     2.68     8.56     0  02:15        2.68
  WS02006113           JUNCTION     0.52     1.94     8.83     0  02:15        1.94
  WS02006115           JUNCTION     0.71     2.35     8.49     0  02:15        2.35
  WS02006116           JUNCTION     0.78     2.04     8.08     0  02:15        2.02
  WS02006228           JUNCTION     1.07     3.03     9.68     0  02:24        3.03
  WS02006229           JUNCTION     1.09     3.22     9.92     0  02:22        3.22
  WS02006230           JUNCTION     1.00     2.65     9.39     0  02:08        2.65
  WS02006231           JUNCTION     0.72     2.24     9.36     0  02:15        2.24
  WS02006232           JUNCTION     0.80     2.18     9.22     0  02:08        2.18
  WS02006234           JUNCTION     0.67     1.96     9.12     0  02:06        1.96
  WS02006235           JUNCTION     0.68     2.00     9.16     0  02:15        2.00
  WS02006238           JUNCTION     0.70     2.15     9.29     0  02:15        2.15
  WS02006239           JUNCTION     0.64     1.89     9.10     0  02:41        1.89
  WS02006240           JUNCTION     0.59     1.67     8.96     0  02:41        1.67
  WS02006242           JUNCTION     0.62     1.55     8.82     0  02:03        1.55
  WS02006243           JUNCTION     0.52     1.48     8.90     0  01:47        1.48
  WS02006245           JUNCTION     0.50     1.31     8.79     0  02:41        1.31
  WS02006247           JUNCTION     0.50     1.27     8.77     0  01:50        1.26
  WS02006248           JUNCTION     0.44     1.10     8.69     0  01:50        1.10
  WS02006249           JUNCTION     0.47     1.09     8.69     0  01:50        1.09
  WS02006251           JUNCTION     0.56     2.21     9.88     0  02:15        2.21
  WS02006252           JUNCTION     0.37     1.50     9.74     0  00:00        1.50
  WS02006253           JUNCTION     0.65     3.10    10.75     0  02:24        3.10
  WS02006256           JUNCTION     0.92     2.35     9.28     0  00:00        2.35
  WS02006280           JUNCTION     0.33     1.83    10.10     0  02:15        1.83
  WS02006284           JUNCTION     0.59     2.08    10.48     0  02:15        2.08
  WS02006287           JUNCTION     0.33     1.74    10.69     0  02:23        1.73
  WSF200               JUNCTION     0.23     0.53     5.76     0  02:25        0.53
  YS02001580           JUNCTION     0.08     1.05     9.59     0  02:12        0.77
  YS02001583           JUNCTION     0.11     1.01     9.50     0  02:12        0.82
  YS02001586           JUNCTION     0.20     1.13     9.30     0  02:12        1.13
  YS02001590           JUNCTION     0.30     1.40     9.26     0  02:12        1.38
  YS02001593           JUNCTION     0.22     1.46     9.32     0  02:15        1.46
  YS02001596           JUNCTION     0.31     1.80     9.22     0  02:15        1.80
  YS02001600           JUNCTION     0.39     1.87     9.00     0  02:12        1.87
  YS02001601           JUNCTION     0.59     2.06     8.90     0  02:11        2.06
  YS02001602           JUNCTION     0.50     1.87     8.77     0  02:15        1.87
  YS02001605           JUNCTION     0.46     1.78     8.68     0  02:15        1.78
  YS02001607           JUNCTION     0.44     1.68     8.53     0  02:15        1.68
  YS02001610           JUNCTION     0.49     1.68     8.48     0  02:15        1.68
  YS02001613           JUNCTION     0.44     1.70     8.54     0  02:15        1.70
  YS02001616           JUNCTION     0.38     1.61     8.52     0  02:15        1.61
  YS02001619           JUNCTION     0.35     1.61     8.54     0  02:15        1.61
  YS02001622           JUNCTION     0.34     1.62     8.52     0  02:15        1.62
  YS02001625           JUNCTION     0.60     1.78     8.38     0  02:15        1.78
  YS02001629           JUNCTION     0.47     1.85     8.40     0  02:19        1.85
  YS02001633           JUNCTION     0.54     2.08     8.53     0  02:15        2.08
  YS02001641           JUNCTION     0.52     2.03     8.47     0  02:21        2.03
  YS02001644           JUNCTION     0.51     1.92     8.35     0  02:21        1.92
  YS02001647           JUNCTION     0.28     1.73     8.34     0  02:22        1.72
  YS02001649           JUNCTION     0.32     1.92     8.31     0  02:22        1.91
  YS02001652           JUNCTION     0.20     1.75     8.34     0  02:25        1.75
  YS02001655           JUNCTION     0.15     1.54     8.39     0  02:24        1.53
  YS02001658           JUNCTION     0.11     1.29     8.43     0  02:25        1.28
  YS02001661           JUNCTION     0.15     1.06     8.46     0  02:24        1.06
  YS02001664           JUNCTION     0.06     0.46     8.38     0  02:25        0.46
  YS02001745           JUNCTION     0.06     0.73     8.25     0  02:24        0.69
  YS02001748           JUNCTION     0.10     1.53     8.61     0  02:22        1.21
  YS02001751           JUNCTION     0.12     1.54     8.42     0  02:22        1.32
  YS02001754           JUNCTION     0.16     1.72     8.33     0  02:22        1.59
  YS02001757           JUNCTION     0.32     1.96     8.23     0  02:22        1.92
  YS02001759           JUNCTION     0.26     1.94     8.30     0  02:22        1.93
  YS02001762           JUNCTION     0.25     1.95     8.35     0  02:22        1.92
  YS02001765           JUNCTION     0.23     1.92     8.37     0  02:22        1.89
  YS02001767           JUNCTION     0.24     1.90     8.39     0  02:22        1.89
  YS02001770           JUNCTION     0.25     1.94     8.43     0  02:22        1.93
  YS02001774           JUNCTION     0.32     2.00     8.43     0  02:20        1.98
  YS02001779           JUNCTION     0.15     1.68     8.37     0  02:19        1.68
  YS02001783           JUNCTION     0.25     1.28     7.42     0  02:18        1.22
  YS02001784           JUNCTION     0.26     1.14     7.20     0  02:18        1.11
  YS02001786           JUNCTION     0.22     0.89     6.92     0  02:18        0.87
  YS02001788           JUNCTION     0.16     0.62     6.60     0  02:22        0.62
  YS02001790           JUNCTION     0.19     0.72     6.37     0  02:27        0.72
  YS02001791           JUNCTION     0.12     0.44     5.91     0  02:27        0.42
  YS02001793           JUNCTION     0.06     0.27     5.10     0  02:20        0.25
  YS02001882           JUNCTION     0.31     1.69     8.41     0  02:21        1.69
  YS02001884           JUNCTION     0.40     1.76     8.37     0  02:21        1.76
  YS02001887           JUNCTION     0.47     1.85     8.39     0  02:21        1.85
  YS02001890           JUNCTION     0.50     1.81     8.32     0  02:18        1.81
  YS02001895           JUNCTION     0.28     1.57     8.31     0  02:23        1.56
  YS02001898           JUNCTION     0.28     1.58     8.31     0  02:21        1.58
  YS02001901           JUNCTION     0.39     1.68     8.29     0  02:18        1.67
  YS02001904           JUNCTION     0.38     1.64     8.27     0  02:29        1.64
  YS02001907           JUNCTION     0.69     1.96     8.25     0  02:18        1.96
  YS02001910           JUNCTION     0.49     1.99     8.49     0  02:19        1.88
  YS02001915           JUNCTION     0.31     1.94     8.66     0  02:19        1.76
  YS02001918           JUNCTION     0.15     1.81     8.88     0  02:19        1.42
  YS02001920           JUNCTION     0.24     2.08     9.09     0  02:19        1.47
  YS02001923           JUNCTION     0.11     1.98     9.24     0  02:19        1.22
  YS02001926           JUNCTION     0.16     1.89     9.33     0  02:19        1.05
  YS02001929           JUNCTION     0.08     1.78     9.47     0  02:19        0.83
  YS02006553           JUNCTION     0.69     1.98     8.26     0  02:23        1.98
  YS02006556           JUNCTION     0.66     1.97     8.28     0  02:24        1.97
  YS02006558           JUNCTION     0.71     2.04     8.31     0  02:21        2.04
  YS02006561           JUNCTION     0.15     0.95     7.61     0  02:18        0.89
  YS02163301           JUNCTION     0.49     1.94     8.46     0  02:21        1.94
  YS02163601           JUNCTION     0.58     2.08     8.48     0  02:21        2.08
  YS02164001           JUNCTION     0.51     2.06     8.52     0  02:21        2.06
  YSB1154              JUNCTION     0.47     2.10    11.16     0  02:15        2.10
  YSB1171              JUNCTION     0.62     1.95    10.85     0  02:15        1.95
  YSB1174              JUNCTION     0.43     1.85    10.96     0  02:21        1.85
  YSB6556              JUNCTION     0.37     1.78    10.95     0  02:21        1.78
  CC-1                 OUTFALL      0.00     0.00     0.00     0  00:00        0.00
  CC-2                 OUTFALL      0.00     0.00     0.00     0  00:00        0.00
  JK-1                 OUTFALL      0.00     0.00     0.00     0  00:00        0.00
  JK-2                 OUTFALL      0.00     0.00     0.00     0  00:00        0.00
  WSC                  OUTFALL      0.30     0.52     1.19     0  02:28        0.52
  CC-storage           STORAGE      0.65     1.34     6.84     0  02:46        1.34
  JK-storage           STORAGE      1.46     4.16     4.96     0  02:20        4.16
  XR-storage           STORAGE      7.82     9.26     7.26     0  08:00        9.26
  
  
  *******************
  Node Inflow Summary
  *******************
  
  -------------------------------------------------------------------------------------------------
                                  Maximum  Maximum                  Lateral       Total        Flow
                                  Lateral    Total  Time of Max      Inflow      Inflow     Balance
                                   Inflow   Inflow   Occurrence      Volume      Volume       Error
  Node                 Type           LPS      LPS  days hr:min    10^6 ltr    10^6 ltr     Percent
  -------------------------------------------------------------------------------------------------
  HS02004478           JUNCTION      0.00  2306.04     0  02:23           0        8.77      -0.003
  HS02004479           JUNCTION      0.00   381.25     0  02:17           0       0.824       0.095
  HS02004480           JUNCTION      0.00  2054.03     0  02:16           0        6.61       0.040
  HS02004770           JUNCTION   1828.90  1828.90     0  02:25        2.79        3.02       0.099
  HS02004777           JUNCTION      0.03   694.43     0  02:12    0.000864        1.93       0.264
  HS02004785           JUNCTION      0.15   704.63     0  02:12     0.00432        1.93       0.029
  HS02004788           JUNCTION    626.52   846.85     0  02:13        1.01        2.93       0.016
  HS02004792           JUNCTION   2374.89  3217.42     0  02:25        3.87        6.81       0.006
  HS02004799           JUNCTION    337.74  1744.12     0  02:15       0.479        5.95       0.047
  HS02004802           JUNCTION      0.00  1232.84     0  02:28           0        2.29       0.172
  HS02004807           JUNCTION    436.06  1619.53     0  02:25       0.612        2.41       0.180
  HS02004817           JUNCTION      0.60  1196.10     0  02:26      0.0173        1.86       0.904
  HS02004824           JUNCTION    687.97  1225.56     0  02:25        1.27        2.04       0.027
  HS02004830           JUNCTION      0.15   564.83     0  02:15     0.00432       0.961       0.136
  HS02004837           JUNCTION    431.25   735.80     0  02:15       0.808        1.25       0.076
  HS02004842           JUNCTION      0.00   731.66     0  02:16           0       0.736       1.806
  HS02004848           JUNCTION    658.08  1003.82     0  02:16         1.3        1.84       0.024
  HS02004852           JUNCTION      0.00   997.27     0  02:16           0        1.65       0.038
  HS02004856           JUNCTION    172.82  1032.31     0  02:16       0.245         1.9       0.079
  HS02004862           JUNCTION    303.00  1112.34     0  02:16       0.555        2.45       0.034
  HS02004870           JUNCTION    237.12  1240.66     0  02:24       0.335        2.78       0.002
  HS02004876           JUNCTION    272.41  1510.22     0  02:25       0.413         3.2       0.030
  HS02004881           JUNCTION    131.22  1640.47     0  02:25       0.182        3.38       0.014
  HS02004901           JUNCTION    417.47   682.63     0  02:25       0.593       0.935       0.188
  WS02001211           JUNCTION      7.35   204.13     0  03:00       0.212        5.44       0.612
  WS02001212           JUNCTION      0.00   211.17     0  03:00           0        5.41       0.290
  WS02001213           JUNCTION      0.00   215.95     0  02:59           0        5.39       0.332
  WS02003059           JUNCTION      0.00   221.08     0  02:59           0        5.38       0.594
  WS02003060           JUNCTION     16.53  1528.53     0  02:26       0.476        13.7       0.107
  WS02003066           JUNCTION      0.00  1330.10     0  02:25           0        7.84       0.018
  WS02003067           JUNCTION      0.00  1329.17     0  02:25           0        7.85       0.055
  WS02003069           JUNCTION      0.32  1528.33     0  02:26     0.00922        13.7       0.112
  WS02003072           JUNCTION      0.00  1528.10     0  02:27           0        13.6       0.152
  WS02003073           JUNCTION      1.82  1530.19     0  02:27      0.0524        13.7       0.158
  WS02004138           JUNCTION      0.00   380.00     0  00:00           0        5.25       0.054
  WS02004139           JUNCTION      0.32   191.14     0  00:29     0.00924        5.26       0.508
  WS02004401           JUNCTION      0.00  1329.76     0  02:25           0        7.95       0.131
  WS02004402           JUNCTION      0.00  1329.92     0  02:25           0        7.94       0.130
  WS02004403           JUNCTION      0.00  1329.86     0  02:24           0        7.93       0.130
  WS02004404           JUNCTION      0.16  1330.31     0  02:25     0.00467        7.92       0.107
  WS02004405           JUNCTION      0.04  1330.58     0  02:25      0.0011        7.92       0.159
  WS02004406           JUNCTION      0.00  1330.41     0  02:24           0         7.9       0.268
  WS02004407           JUNCTION      0.00  1330.32     0  02:24           0        7.88       0.018
  WS02004409           JUNCTION      0.00  1329.41     0  02:25           0        7.88       0.040
  WS02004410           JUNCTION      0.00  1329.49     0  02:25           0        7.88       0.061
  WS02004411           JUNCTION      0.00  1329.36     0  02:25           0        7.87       0.076
  WS02004412           JUNCTION      0.00  1330.31     0  02:25           0        7.87       0.100
  WS02004413           JUNCTION      0.00  1329.15     0  02:25           0        7.86       0.175
  WS02006109           JUNCTION      1.23  1290.30     0  02:23      0.0354        7.73       0.131
  WS02006110           JUNCTION      0.00  1121.74     0  02:38           0        7.46       0.103
  WS02006111           JUNCTION      0.00  1121.76     0  02:38           0        7.45       0.012
  WS02006112           JUNCTION    364.61  1330.00     0  02:25       0.529        7.98       0.235
  WS02006113           JUNCTION      0.00  1121.67     0  02:38           0        7.45       0.024
  WS02006115           JUNCTION      0.00  1330.20     0  02:24           0        7.96       0.085
  WS02006116           JUNCTION      0.00  1330.04     0  02:25           0        7.96       0.066
  WS02006228           JUNCTION      0.00  1289.63     0  02:23           0         7.7       0.064
  WS02006229           JUNCTION      0.00  2305.65     0  02:23           0          10       0.080
  WS02006230           JUNCTION     10.28  1027.07     0  02:23       0.296        3.68       0.216
  WS02006231           JUNCTION      0.00   453.43     0  02:44           0        2.47      -0.155
  WS02006232           JUNCTION      0.00   458.01     0  02:15           0        2.46       0.188
  WS02006234           JUNCTION      0.00   453.16     0  02:49           0        2.45      -0.132
  WS02006235           JUNCTION      0.00   418.43     0  02:35           0        2.34       0.173
  WS02006238           JUNCTION      0.00   415.79     0  02:44           0        2.33      -0.111
  WS02006239           JUNCTION      0.00   415.23     0  02:30           0        2.32      -0.125
  WS02006240           JUNCTION      0.00   417.05     0  02:41           0        2.31      -0.011
  WS02006242           JUNCTION      0.00   415.16     0  02:30           0        2.31      -0.019
  WS02006243           JUNCTION      0.00   377.59     0  03:20           0        1.95       0.010
  WS02006245           JUNCTION      0.00   383.09     0  00:05           0        1.96       0.334
  WS02006247           JUNCTION      0.00   385.59     0  00:04           0        1.96       0.004
  WS02006248           JUNCTION      0.00   390.96     0  00:04           0         2.2      -0.029
  WS02006249           JUNCTION      0.00  1373.42     0  02:25           0        5.05       0.126
  WS02006251           JUNCTION      0.08  1683.70     0  02:25     0.00222        5.19      -0.004
  WS02006252           JUNCTION      0.00   710.66     0  02:25           0        2.22      -0.543
  WS02006253           JUNCTION     42.33  1683.46     0  02:25      0.0567        3.46       0.045
  WS02006256           JUNCTION      0.00   300.00     0  00:00           0       0.296      -0.217
  WS02006280           JUNCTION      0.00  2305.23     0  02:23           0        8.75       0.006
  WS02006284           JUNCTION      0.10  2304.79     0  02:23     0.00275        8.75       0.007
  WS02006287           JUNCTION      0.00  2305.86     0  02:23           0        8.75       0.011
  WSF200               JUNCTION      0.00  1330.24     0  02:25           0        7.84       0.009
  YS02001580           JUNCTION      0.00    68.59     0  02:11           0     0.00406       0.698
  YS02001583           JUNCTION      0.00   115.68     0  02:11           0      0.0153      -4.353
  YS02001586           JUNCTION    763.24   763.24     0  02:26        1.55        1.57       0.062
  YS02001590           JUNCTION      0.00   318.15     0  02:41           0        1.25      -0.032
  YS02001593           JUNCTION      0.00   318.00     0  02:26           0        1.25       0.010
  YS02001596           JUNCTION      0.00   318.09     0  02:27           0        1.25      -0.006
  YS02001600           JUNCTION      0.00   318.02     0  02:26           0        1.25       0.019
  YS02001601           JUNCTION   1266.52  1583.97     0  02:25        2.06        3.31       0.025
  YS02001602           JUNCTION      0.00   491.83     0  02:45           0         2.2       0.018
  YS02001605           JUNCTION      0.00   492.04     0  02:45           0        2.12       0.020
  YS02001607           JUNCTION      0.00   492.82     0  02:11           0        2.12       0.089
  YS02001610           JUNCTION      0.00   717.96     0  02:26           0        2.28       0.101
  YS02001613           JUNCTION      0.00   493.58     0  02:45           0        1.92       0.080
  YS02001616           JUNCTION      0.00   494.61     0  02:45           0        1.93       0.020
  YS02001619           JUNCTION   1316.96  1316.96     0  02:26        2.41        4.17      -0.000
  YS02001622           JUNCTION      0.00   954.03     0  02:25           0           4       0.001
  YS02001625           JUNCTION      0.00  1320.63     0  02:26           0        4.13       0.215
  YS02001629           JUNCTION      0.00   944.35     0  02:17           0        3.48       0.027
  YS02001633           JUNCTION    980.85  1386.50     0  02:17        1.56        4.89       0.071
  YS02001641           JUNCTION      0.00  1383.82     0  02:17           0        4.74       0.056
  YS02001644           JUNCTION    838.02  1763.74     0  02:17        1.29        6.02       0.055
  YS02001647           JUNCTION      0.00  1765.60     0  02:17           0        5.83       0.007
  YS02001649           JUNCTION      0.00  2024.95     0  02:18           0        7.07       0.005
  YS02001652           JUNCTION      0.00   870.50     0  02:25           0        1.24      -0.069
  YS02001655           JUNCTION      0.15   870.81     0  02:25     0.00443        1.24       0.018
  YS02001658           JUNCTION      0.00   869.49     0  02:25           0        1.23      -0.023
  YS02001661           JUNCTION      0.00   859.03     0  02:25           0        1.23       0.019
  YS02001664           JUNCTION    855.43   855.43     0  02:25        1.23        1.23      -0.006
  YS02001745           JUNCTION    504.12   504.12     0  02:25       0.702       0.702       0.162
  YS02001748           JUNCTION      0.04   540.54     0  02:22      0.0013       0.704      -0.264
  YS02001751           JUNCTION      0.01   518.51     0  02:24    0.000317       0.708      -0.008
  YS02001754           JUNCTION      0.26   518.75     0  02:24     0.00749       0.717      -0.139
  YS02001757           JUNCTION      0.00  3520.87     0  02:24           0        10.3       0.058
  YS02001759           JUNCTION    738.25  1436.87     0  02:24        1.03        2.48      -0.001
  YS02001762           JUNCTION      0.00   776.25     0  02:22           0        1.45       0.007
  YS02001765           JUNCTION      0.00   777.14     0  02:22           0        1.45       0.019
  YS02001767           JUNCTION      0.54   778.09     0  02:22      0.0154        1.45       0.004
  YS02001770           JUNCTION   1016.63  1016.63     0  02:25        1.51        1.55      -0.006
  YS02001774           JUNCTION      0.00   337.30     0  02:25           0       0.129       1.147
  YS02001779           JUNCTION      0.01   336.56     0  02:25    0.000144      0.0862      -0.313
  YS02001783           JUNCTION      0.00  1164.60     0  02:24           0        3.69       0.007
  YS02001784           JUNCTION      1.06  1165.72     0  02:24      0.0305        3.72       0.013
  YS02001786           JUNCTION      0.06  1166.13     0  02:24     0.00162        3.72       0.017
  YS02001788           JUNCTION      0.07  1165.83     0  02:24     0.00204        3.72       0.008
  YS02001790           JUNCTION      0.15  1174.01     0  02:23     0.00446        3.72       0.022
  YS02001791           JUNCTION      0.00  1282.31     0  02:27           0        3.72      -0.023
  YS02001793           JUNCTION      0.00  1235.83     0  02:26           0        3.72       0.005
  YS02001882           JUNCTION      0.00    33.20     0  02:16           0      0.0127       4.788
  YS02001884           JUNCTION      0.00    45.36     0  02:15           0      0.0486       5.450
  YS02001887           JUNCTION    772.54   772.54     0  02:25        1.06        1.09       0.405
  YS02001890           JUNCTION      0.00   773.76     0  02:25           0        1.05       0.484
  YS02001895           JUNCTION      0.00   517.24     0  02:26           0       0.988       0.160
  YS02001898           JUNCTION      0.00   517.14     0  02:25           0       0.986       0.025
  YS02001901           JUNCTION      0.00   517.06     0  02:26           0       0.989       0.327
  YS02001904           JUNCTION      0.00   517.01     0  02:25           0       0.993       0.283
  YS02001907           JUNCTION      0.00  1800.52     0  02:25           0        3.11       0.579
  YS02001910           JUNCTION      0.00  1284.35     0  02:25           0        2.12       0.340
  YS02001915           JUNCTION    842.88  1284.19     0  02:25         1.3        2.15       0.073
  YS02001918           JUNCTION      0.00   458.72     0  02:25           0       0.863       0.007
  YS02001920           JUNCTION      2.87   458.71     0  02:25      0.0827        0.85       0.100
  YS02001923           JUNCTION      0.04   452.91     0  02:25     0.00109       0.755       0.006
  YS02001926           JUNCTION      0.05   451.31     0  02:25      0.0015       0.741      -0.001
  YS02001929           JUNCTION    437.25   437.25     0  02:25       0.734       0.734      -0.084
  YS02006553           JUNCTION      0.00   797.99     0  02:35           0        2.27       0.522
  YS02006556           JUNCTION      0.00   798.48     0  02:35           0        2.27       0.361
  YS02006558           JUNCTION   1012.01  1164.56     0  02:24        1.47        3.72       0.094
  YS02006561           JUNCTION      0.00  1164.37     0  02:24           0        3.69       0.000
  YS02163301           JUNCTION      0.00   948.60     0  02:15           0        3.48       0.042
  YS02163601           JUNCTION      0.11  1386.85     0  02:17     0.00317        4.74       0.103
  YS02164001           JUNCTION      0.00  1384.74     0  02:17           0        4.74       0.048
  YSB1154              JUNCTION    438.76   438.76     0  02:25       0.657       0.658       0.216
  YSB1171              JUNCTION      0.00  1035.20     0  02:25           0        1.25       0.512
  YSB1174              JUNCTION    365.28   365.28     0  02:25        0.49       0.491       0.254
  YSB6556              JUNCTION      0.00   438.87     0  02:25           0       0.659       0.173
  CC-1                 OUTFALL       0.00   683.00     0  00:00           0        4.51       0.000
  CC-2                 OUTFALL       0.00   683.00     0  00:00           0        4.51       0.000
  JK-1                 OUTFALL       0.00  1000.00     0  00:00           0        1.77       0.000
  JK-2                 OUTFALL       0.00  1000.00     0  00:00           0        1.77       0.000
  WSC                  OUTFALL       0.00  1530.82     0  02:28           0        13.6       0.000
  CC-storage           STORAGE       0.00  3520.61     0  02:24           0        12.5      -0.240
  JK-storage           STORAGE       0.00  1281.44     0  02:20           0        3.87      -0.397
  XR-storage           STORAGE     200.00   200.00     0  00:00        5.76        6.36       0.001
  
  
  **********************
  Node Surcharge Summary
  **********************
  
  Surcharging occurs when water rises above the top of the highest conduit.
  ---------------------------------------------------------------------
                                               Max. Height   Min. Depth
                                   Hours       Above Crown    Below Rim
  Node                 Type      Surcharged         Meters       Meters
  ---------------------------------------------------------------------
  HS02004478           JUNCTION        0.48          0.667        0.273
  HS02004479           JUNCTION        0.61          0.895        0.155
  HS02004480           JUNCTION        0.66          0.956        0.144
  HS02004770           JUNCTION        0.56          0.720        0.000
  HS02004777           JUNCTION        0.56          0.780        0.000
  HS02004785           JUNCTION        0.51          0.790        0.000
  HS02004788           JUNCTION        0.50          0.687        0.033
  HS02004792           JUNCTION        0.63          0.900        0.000
  HS02004799           JUNCTION        0.77          1.060        0.000
  HS02004802           JUNCTION        0.67          1.091        0.119
  HS02004807           JUNCTION        0.64          1.220        0.000
  HS02004817           JUNCTION        1.25          1.713        0.027
  HS02004824           JUNCTION        0.50          1.310        0.000
  HS02004830           JUNCTION        0.47          1.293        0.037
  HS02004837           JUNCTION        0.43          1.219        0.121
  HS02004842           JUNCTION        0.57          1.520        0.000
  HS02004848           JUNCTION        0.39          1.337        0.033
  HS02004852           JUNCTION        0.41          1.320        0.100
  HS02004856           JUNCTION        0.40          1.265        0.035
  HS02004862           JUNCTION        0.44          1.300        0.000
  HS02004870           JUNCTION        0.45          1.306        0.094
  HS02004876           JUNCTION        0.52          1.397        0.163
  HS02004881           JUNCTION        0.50          1.134        0.316
  HS02004901           JUNCTION        0.56          0.720        0.000
  WS02004401           JUNCTION        1.53          0.961        0.699
  WS02004402           JUNCTION        1.57          1.397        0.343
  WS02004403           JUNCTION        1.58          1.182        0.848
  WS02004404           JUNCTION        1.66          0.916        1.864
  WS02004405           JUNCTION        1.65          0.791        2.009
  WS02004406           JUNCTION        1.63          0.676        1.774
  WS02004409           JUNCTION        1.07          0.420        1.940
  WS02004410           JUNCTION        0.97          0.323        2.217
  WS02004411           JUNCTION        0.88          0.223        2.307
  WS02004412           JUNCTION        0.79          0.118        2.192
  WS02004413           JUNCTION        1.27          0.152        2.048
  WS02006109           JUNCTION        2.00          1.820        0.000
  WS02006110           JUNCTION        1.77          1.505        0.345
  WS02006111           JUNCTION        1.22          1.000        0.870
  WS02006112           JUNCTION        1.85          1.680        0.000
  WS02006113           JUNCTION        1.24          1.137        0.793
  WS02006115           JUNCTION        1.42          1.345        0.905
  WS02006116           JUNCTION        1.44          0.982        1.308
  WS02006228           JUNCTION        2.00          2.200        0.000
  WS02006229           JUNCTION        0.91          1.043        0.027
  WS02006230           JUNCTION        1.63          1.570        0.000
  WS02006231           JUNCTION        1.65          1.530        0.000
  WS02006232           JUNCTION        1.83          1.480        0.000
  WS02006234           JUNCTION        1.68          1.240        0.000
  WS02006235           JUNCTION        1.71          1.290        0.000
  WS02006238           JUNCTION        1.73          1.430        0.000
  WS02006239           JUNCTION        1.64          1.155        0.135
  WS02006240           JUNCTION        1.62          0.960        0.430
  WS02006242           JUNCTION        1.65          0.820        0.000
  WS02006243           JUNCTION        1.58          0.770        0.000
  WS02006245           JUNCTION        1.56          0.596        0.254
  WS02006247           JUNCTION        1.56          0.558        0.202
  WS02006248           JUNCTION        1.52          0.380        0.000
  WS02006249           JUNCTION        1.52          0.390        0.000
  WS02006251           JUNCTION        1.42          1.180        0.000
  WS02006252           JUNCTION        1.59          1.100        0.000
  WS02006253           JUNCTION        1.45          2.064        0.416
  WS02006256           JUNCTION        5.84          2.050        0.000
  WS02006280           JUNCTION        0.77          0.780        0.000
  WS02006284           JUNCTION        0.69          0.800        0.000
  WS02006287           JUNCTION        0.58          0.740        0.150
  YS02001580           JUNCTION        0.55          0.450        0.000
  YS02001583           JUNCTION        0.55          0.367        0.133
  YS02001586           JUNCTION        0.64          0.510        0.000
  YS02001590           JUNCTION        0.71          0.750        0.000
  YS02001593           JUNCTION        0.71          0.840        0.000
  YS02001596           JUNCTION        0.83          1.070        0.000
  YS02001600           JUNCTION        1.01          1.190        0.000
  YS02001601           JUNCTION        1.38          1.440        0.000
  YS02001602           JUNCTION        1.26          1.270        0.000
  YS02001605           JUNCTION        1.20          1.180        0.000
  YS02001607           JUNCTION        0.66          0.680        0.000
  YS02001610           JUNCTION        0.68          0.680        0.000
  YS02001613           JUNCTION        0.65          0.700        0.000
  YS02001616           JUNCTION        0.61          0.610        0.000
  YS02001619           JUNCTION        0.60          0.610        0.000
  YS02001622           JUNCTION        0.59          0.620        0.000
  YS02001625           JUNCTION        0.78          0.780        0.000
  YS02001629           JUNCTION        0.53          0.470        0.000
  YS02001633           JUNCTION        0.79          1.060        0.000
  YS02001641           JUNCTION        0.68          1.032        0.068
  YS02001644           JUNCTION        0.64          0.920        0.000
  YS02001647           JUNCTION        0.40          0.735        0.165
  YS02001649           JUNCTION        0.47          0.921        0.129
  YS02001652           JUNCTION        0.33          0.718        0.412
  YS02001655           JUNCTION        0.24          0.542        0.658
  YS02001658           JUNCTION        0.14          0.286        1.014
  YS02001748           JUNCTION        0.07          0.448        0.742
  YS02001751           JUNCTION        0.16          0.538        0.662
  YS02001754           JUNCTION        0.24          0.671        0.479
  YS02001757           JUNCTION        0.49          0.964        0.246
  YS02001759           JUNCTION        0.42          0.939        0.271
  YS02001762           JUNCTION        0.39          0.945        0.205
  YS02001765           JUNCTION        0.37          0.920        0.180
  YS02001767           JUNCTION        0.35          0.903        0.127
  YS02001770           JUNCTION        0.33          0.906        0.014
  YS02001774           JUNCTION        0.38          1.004        0.046
  YS02001779           JUNCTION        0.25          0.680        0.000
  YS02001783           JUNCTION        0.44          0.476        1.124
  YS02001784           JUNCTION        0.42          0.337        1.153
  YS02001786           JUNCTION        0.32          0.093        1.337
  YS02001882           JUNCTION        0.39          0.692        0.138
  YS02001884           JUNCTION        0.40          0.698        0.172
  YS02001887           JUNCTION        0.43          0.800        0.150
  YS02001890           JUNCTION        0.45          0.760        0.000
  YS02001895           JUNCTION        0.38          0.566        0.184
  YS02001898           JUNCTION        0.37          0.547        0.193
  YS02001901           JUNCTION        0.42          0.678        0.192
  YS02001904           JUNCTION        0.41          0.644        0.206
  YS02001907           JUNCTION        0.69          0.950        0.000
  YS02001910           JUNCTION        0.47          0.986        0.114
  YS02001915           JUNCTION        0.39          0.939        0.061
  YS02001918           JUNCTION        0.30          0.810        0.000
  YS02001920           JUNCTION        0.32          1.081        0.059
  YS02001923           JUNCTION        0.05          0.771        0.049
  YS02001926           JUNCTION        0.08          0.887        0.013
  YS02001929           JUNCTION        0.01          0.780        0.000
  YS02006553           JUNCTION        0.70          0.979        0.211
  YS02006556           JUNCTION        0.57          0.930        0.420
  YS02006558           JUNCTION        0.55          0.943        0.457
  YS02006561           JUNCTION        0.27          0.148        1.002
  YS02163301           JUNCTION        0.77          0.944        0.086
  YS02163601           JUNCTION        0.82          1.080        0.000
  YS02164001           JUNCTION        0.70          1.059        0.041
  YSB1154              JUNCTION        0.90          1.400        0.000
  YSB1171              JUNCTION        0.90          1.100        0.000
  YSB1174              JUNCTION        0.81          1.154        0.096
  YSB6556              JUNCTION        0.73          1.082        0.018
  
  
  *********************
  Node Flooding Summary
  *********************
  
  Flooding refers to all water that overflows a node, whether it ponds or not.
  --------------------------------------------------------------------------
                                                             Total   Maximum
                                 Maximum   Time of Max       Flood    Ponded
                        Hours       Rate    Occurrence      Volume     Depth
  Node                 Flooded       LPS   days hr:min    10^6 ltr    Meters
  --------------------------------------------------------------------------
  HS02004770              0.39   1348.91      0  02:25       0.747     0.000
  HS02004777              0.01     37.91      0  02:12       0.000     0.000
  HS02004785              0.01      0.56      0  02:15       0.000     0.000
  HS02004792              0.37   2073.93      0  02:25       1.333     0.000
  HS02004799              0.17    179.83      0  02:25       0.062     0.000
  HS02004807              0.09    388.74      0  02:25       0.078     0.000
  HS02004824              0.03     33.28      0  02:25       0.002     0.000
  HS02004842              0.02     73.84      0  02:16       0.001     0.000
  HS02004862              0.01     10.55      0  02:25       0.000     0.000
  HS02004901              0.45    682.48      0  02:25       0.700     0.000
  WS02006109              0.40    322.43      0  02:25       0.258     0.000
  WS02006112              0.01      0.29      0  02:15       0.000     0.000
  WS02006228              0.01      0.46      0  02:41       0.000     0.000
  WS02006230              0.70    574.16      0  02:23       0.938     0.000
  WS02006231              0.01      0.17      0  02:15       0.000     0.000
  WS02006232              0.18     32.36      0  02:15       0.001     0.000
  WS02006234              0.74    128.44      0  02:21       0.201     0.000
  WS02006238              0.01      0.23      0  02:15       0.000     0.000
  WS02006242              0.83    137.40      0  02:30       0.357     0.000
  WS02006243              0.01     99.22      0  01:47       0.000     0.000
  WS02006248              1.17    339.20      0  02:11       1.187     0.000
  WS02006249              1.48   1312.54      0  02:25       3.785     0.000
  WS02006251              0.01      0.49      0  02:15       0.000     0.000
  WS02006252              0.44    710.60      0  02:25       0.509     0.000
  WS02006256              0.27    295.73      0  02:40       0.199     0.000
  WS02006280              0.01      0.85      0  02:15       0.000     0.000
  WS02006284              0.01      0.41      0  02:15       0.000     0.000
  YS02001580              0.01     44.87      0  02:12       0.000     0.000
  YS02001586              0.43    445.66      0  02:26       0.306     0.000
  YS02001590              0.01      4.54      0  02:12       0.000     0.000
  YS02001593              0.01      0.08      0  02:15       0.000     0.000
  YS02001596              0.01      0.15      0  02:15       0.000     0.000
  YS02001600              0.01      2.72      0  02:15       0.000     0.000
  YS02001601              0.57   1185.88      0  02:25       1.106     0.000
  YS02001602              0.42     61.97      0  02:29       0.084     0.000
  YS02001607              0.01      0.46      0  02:15       0.000     0.000
  YS02001610              0.36    717.95      0  02:26       0.518     0.000
  YS02001613              0.01      0.51      0  02:15       0.000     0.000
  YS02001616              0.01      0.74      0  02:15       0.000     0.000
  YS02001619              0.01      1.83      0  02:24       0.000     0.000
  YS02001622              0.01      0.12      0  02:15       0.000     0.000
  YS02001625              0.32   1320.20      0  02:26       0.791     0.000
  YS02001629              0.10    111.83      0  02:24       0.025     0.000
  YS02001633              0.01      1.18      0  02:21       0.000     0.000
  YS02001644              0.13    692.74      0  02:25       0.182     0.000
  YS02001779              0.11    336.47      0  02:25       0.069     0.000
  YS02001890              0.14    257.97      0  02:25       0.059     0.000
  YS02001907              0.26   1630.03      0  02:25       0.834     0.000
  YS02001918              0.01     91.08      0  02:19       0.001     0.000
  YS02001929              0.01    202.24      0  02:19       0.000     0.000
  YS02163601              0.01      1.89      0  02:21       0.000     0.000
  YSB1154                 0.01      0.16      0  02:15       0.000     0.000
  YSB1171                 0.27   1034.68      0  02:25       0.514     0.000
  
  
  **********************
  Storage Volume Summary
  **********************
  
  --------------------------------------------------------------------------------------------------
                         Average     Avg  Evap Exfil       Maximum     Max    Time of Max    Maximum
                          Volume    Pcnt  Pcnt  Pcnt        Volume    Pcnt     Occurrence    Outflow
  Storage Unit           1000 m3    Full  Loss  Loss       1000 m3    Full    days hr:min        LPS
  --------------------------------------------------------------------------------------------------
  CC-storage               1.823      28     0     0         3.747      58       0  02:46    1783.53
  JK-storage               0.074      25     0     0         0.209      72       0  02:20    2300.00
  XR-storage               0.939      65     0     0         1.111      77       0  08:00     380.00
  
  
  ***********************
  Outfall Loading Summary
  ***********************
  
  -----------------------------------------------------------
                         Flow       Avg       Max       Total
                         Freq      Flow      Flow      Volume
  Outfall Node           Pcnt       LPS       LPS    10^6 ltr
  -----------------------------------------------------------
  CC-1                  43.60    683.00    683.00       4.508
  CC-2                  43.60    683.00    683.00       4.508
  JK-1                   9.91   1000.00   1000.00       1.766
  JK-2                   9.91   1000.00   1000.00       1.766
  WSC                   99.95    634.03   1530.82      13.647
  -----------------------------------------------------------
  System                41.39   4000.03   1530.82      26.195
  
  
  ********************
  Link Flow Summary
  ********************
  
  -----------------------------------------------------------------------------
                                 Maximum  Time of Max   Maximum    Max/    Max/
                                  |Flow|   Occurrence   |Veloc|    Full    Full
  Link                 Type          LPS  days hr:min     m/sec    Flow   Depth
  -----------------------------------------------------------------------------
  1                    CONDUIT   1530.82     0  02:28      3.71    0.53    0.52
  HS02004478WS02006287 CONDUIT   2305.86     0  02:23      2.60    0.65    1.00
  HS02004479HS02004480 CONDUIT    381.16     0  02:17      0.54    0.37    1.00
  HS02004480HS02004478 CONDUIT   2054.30     0  02:16      2.93    8.65    1.00
  HS02004770HS02004777 CONDUIT    694.40     0  02:12      0.99    1.27    1.00
  HS02004777HS02004785 CONDUIT    704.48     0  02:12      1.06    0.87    1.00
  HS02004785HS02004788 CONDUIT    637.33     0  02:13      1.36    4.81    1.00
  HS02004788HS02004792 CONDUIT    845.88     0  02:13      1.43    0.56    1.00
  HS02004792HS02004799 CONDUIT   1625.05     0  02:13      2.32    0.99    1.00
  HS02004799HS02004480 CONDUIT   1743.16     0  02:15      2.49    2.20    1.00
  HS02004802HS02004478 CONDUIT   1233.26     0  02:27      1.76    1.09    1.00
  HS02004807HS02004802 CONDUIT   1232.84     0  02:28      1.76    2.35    1.00
  HS02004817HS02004807 CONDUIT   1196.02     0  02:26      1.71    0.71    1.00
  HS02004817HS02004824 CONDUIT   1195.50     0  02:26      1.71    0.54    1.00
  HS02004824HS02004830 CONDUIT    564.68     0  02:15      0.82    0.74    1.00
  HS02004830HS02004837 CONDUIT    569.63     0  02:15      0.90    0.57    1.00
  HS02004837HS02004842 CONDUIT    731.66     0  02:16      1.05    0.44    1.00
  HS02004842HS02004848 CONDUIT    731.29     0  02:16      1.11    0.43    1.00
  HS02004848HS02004852 CONDUIT    997.27     0  02:16      1.51    1.12    1.00
  HS02004852HS02004856 CONDUIT    960.31     0  02:16      1.43    1.10    1.00
  HS02004856HS02004862 CONDUIT    991.00     0  02:16      1.65    0.99    1.00
  HS02004862HS02004870 CONDUIT   1064.99     0  02:15      1.88    1.15    1.00
  HS02004870HS02004876 CONDUIT   1240.72     0  02:24      1.77    0.82    1.00
  HS02004876HS02004881 CONDUIT   1510.47     0  02:25      2.42   16.07    1.00
  HS02004881HS02006253 CONDUIT   1641.29     0  02:25      2.61    0.32    1.00
  HS02004901HS02004770 CONDUIT    265.79     0  02:36      0.38    1.00    1.00
  WS02001211WS02001212 CONDUIT    211.17     0  03:00      0.54    0.16    0.70
  WS02001212WS02001213 CONDUIT    215.95     0  02:59      1.04    0.33    0.57
  WS02001213WS02003059 CONDUIT    221.08     0  02:59      0.47    0.36    0.90
  WS02003059WS02003060 CONDUIT    227.54     0  02:58      0.66    0.15    0.82
  WS02003060WS02003069 CONDUIT   1528.01     0  02:26      2.09    0.60    0.62
  WS02003066WSF200     CONDUIT   1330.24     0  02:25      3.26    0.22    0.39
  WS02003067WS02003066 CONDUIT   1330.10     0  02:25      2.03    0.43    0.56
  WS02003069WS02003072 CONDUIT   1528.10     0  02:27      1.90    0.74    0.67
  WS02003072WS02003073 CONDUIT   1528.37     0  02:27      2.06    3.30    0.62
  WS02004138WS02004139 CONDUIT    190.82     0  00:29      2.16    0.04    0.42
  WS02004139WS02001211 CONDUIT    196.78     0  03:00      0.54    0.25    0.61
  WS02004401WS02004402 CONDUIT   1329.92     0  02:25      1.69    1.60    1.00
  WS02004402WS02004403 CONDUIT   1329.86     0  02:24      1.69    1.91    1.00
  WS02004403WS02004404 CONDUIT   1330.15     0  02:25      1.69    0.96    1.00
  WS02004404WS02004405 CONDUIT   1330.54     0  02:25      1.69   13.04    1.00
  WS02004405WS02004406 CONDUIT   1330.41     0  02:24      1.69    2.62    1.00
  WS02004406WS02004407 CONDUIT   1330.32     0  02:24      1.74    0.59    0.99
  WS02004407WS02004409 CONDUIT   1329.41     0  02:25      1.72    0.47    0.99
  WS02004409WS02004410 CONDUIT   1329.49     0  02:25      1.69    1.72    1.00
  WS02004410WS02004411 CONDUIT   1329.36     0  02:25      1.69    1.82    1.00
  WS02004411WS02004412 CONDUIT   1330.31     0  02:25      1.69    1.89    1.00
  WS02004412WS02004413 CONDUIT   1329.15     0  02:25      1.69    0.89    1.00
  WS02004413WS02003067 CONDUIT   1329.17     0  02:25      2.05    0.57    0.77
  WS02006109WS02006110 CONDUIT   1121.74     0  02:38      2.23    2.16    1.00
  WS02006110WS02006113 CONDUIT   1121.67     0  02:38      2.23    1.02    1.00
  WS02006111WS02006112 CONDUIT   1121.85     0  02:38      2.23    0.53    1.00
  WS02006112WS02006115 CONDUIT   1330.20     0  02:24      1.69    0.79    1.00
  WS02006113WS02006111 CONDUIT   1121.76     0  02:38      2.63    1.34    1.00
  WS02006115WS02006116 CONDUIT   1330.04     0  02:25      1.69    1.71    1.00
  WS02006116WS02004401 CONDUIT   1329.76     0  02:25      1.69    1.83    1.00
  WS02006228WS02006109 CONDUIT   1289.07     0  02:23      2.56    5.63    1.00
  WS02006229WS02006228 CONDUIT   1289.63     0  02:23      2.57    4.27    1.00
  WS02006230WS02006229 CONDUIT   1016.79     0  02:23      2.64   22.63    1.00
  WS02006231WS02006230 CONDUIT    453.43     0  02:44      1.21    6.88    1.00
  WS02006232WS02006231 CONDUIT    458.01     0  02:15      1.19    0.96    1.00
  WS02006234WS02006232 CONDUIT    453.16     0  02:49      1.41    0.92    1.00
  WS02006235WS02006234 CONDUIT    418.43     0  02:35      1.21    4.41    1.00
  WS02006238WS02006235 CONDUIT    415.79     0  02:44      1.45    0.93    1.00
  WS02006239WS02006238 CONDUIT    415.23     0  02:30      1.11    1.33    1.00
  WS02006240WS02006239 CONDUIT    417.05     0  02:41      1.26    1.31    1.00
  WS02006242WS02006240 CONDUIT    415.16     0  02:30      1.14    1.65    1.00
  WS02006243WS02006242 CONDUIT    377.66     0  03:20      1.34    0.81    1.00
  WS02006245WS02006243 CONDUIT    377.59     0  03:20      1.39    1.12    1.00
  WS02006247WS02006245 CONDUIT    383.09     0  00:05      1.37    3.04    1.00
  WS02006248WS02006247 CONDUIT    385.59     0  00:04      1.38    0.84    1.00
  WS02006249WS02006248 CONDUIT    390.96     0  00:04      1.38    2.14    1.00
  WS02006251WS02006249 CONDUIT   1373.42     0  02:25      3.57    3.96    1.00
  WS02006252WS02006251 CONDUIT    407.26     0  02:51     19.67    1.49    1.00
  WS02006253WS02006251 CONDUIT   1683.62     0  02:25      4.37    5.05    1.00
  WS02006256WS02006235 CONDUIT    288.93     0  00:00      4.23    3.06    1.00
  WS02006280WS02006229 CONDUIT   2305.65     0  02:23      4.27    0.49    1.00
  WS02006284WS02006280 CONDUIT   2305.23     0  02:23      3.02    0.97    1.00
  WS02006287WS02006284 CONDUIT   2304.69     0  02:23      2.93    1.07    1.00
  WSF200WS02003060     CONDUIT   1330.17     0  02:25      2.30    0.30    0.51
  YS02001580YS02001583 CONDUIT     68.59     0  02:11      0.51    0.27    1.00
  YS02001583YS02001586 CONDUIT    115.68     0  02:11      0.51    0.18    1.00
  YS02001586YS02001590 CONDUIT    318.15     0  02:41      1.26    0.56    1.00
  YS02001590YS02001593 CONDUIT    318.00     0  02:26      1.12    2.00    1.00
  YS02001593YS02001596 CONDUIT    318.09     0  02:27      1.78    0.50    1.00
  YS02001596YS02001600 CONDUIT    318.02     0  02:26      1.27    0.62    1.00
  YS02001600YS02001601 CONDUIT    318.88     0  02:41      1.13    0.55    1.00
  YS02001601YS02001602 CONDUIT    491.83     0  02:45      1.74    1.78    1.00
  YS02001602YS02001605 CONDUIT    492.04     0  02:45      1.74   10.41    1.00
  YS02001605YS02001607 CONDUIT    492.82     0  02:11      1.74    2.70    1.00
  YS02001607YS02001610 CONDUIT    492.68     0  02:45      0.63    0.47    1.00
  YS02001610YS02001613 CONDUIT    493.58     0  02:45      0.63    0.57    1.00
  YS02001613YS02001616 CONDUIT    494.61     0  02:45      0.63    0.42    1.00
  YS02001616YS02001619 CONDUIT    495.55     0  02:45      0.68    0.86    1.00
  YS02001619YS02001622 CONDUIT    954.03     0  02:25      1.21    1.41    1.00
  YS02001622YS02001625 CONDUIT    954.54     0  02:25      1.22    0.51    1.00
  YS02001625YS02001629 CONDUIT    944.35     0  02:17      1.20    0.45    1.00
  YS02001629YS02163301 CONDUIT    948.60     0  02:15      1.21    1.17    1.00
  YS02001633YS02163601 CONDUIT   1386.74     0  02:17      1.77    1.46    1.00
  YS02001641YS02001644 CONDUIT   1384.50     0  02:17      1.76    4.48    1.00
  YS02001644YS02001647 CONDUIT   1765.60     0  02:17      2.26    1.04    1.00
  YS02001647YS02001649 CONDUIT   1770.36     0  02:17      2.33    0.93    1.00
  YS02001649YS02001757 CONDUIT   2023.69     0  02:18      2.58    1.23    1.00
  YS02001652YS02001649 CONDUIT    870.18     0  02:25      1.11    0.43    1.00
  YS02001655YS02001652 CONDUIT    870.50     0  02:25      1.23    0.42    1.00
  YS02001658YS02001655 CONDUIT    870.66     0  02:25      1.84    0.37    1.00
  YS02001661YS02001658 CONDUIT    869.49     0  02:25      2.28    0.34    0.99
  YS02001664YS02001661 CONDUIT    859.03     0  02:25      2.27    0.27    0.73
  YS02001745YS02001748 CONDUIT    540.49     0  02:22      2.09    0.21    0.87
  YS02001748YS02001751 CONDUIT    518.50     0  02:24      1.62    0.26    1.00
  YS02001751YS02001754 CONDUIT    518.49     0  02:24      1.34    0.25    1.00
  YS02001754YS02001757 CONDUIT    519.10     0  02:24      0.66    0.21    1.00
  YS02001757CaochengTiaoxuchi CONDUIT   3520.61     0  02:24      4.49    1.52    1.00
  YS02001759YS02001757 CONDUIT   1436.12     0  02:24      1.83    1.02    1.00
  YS02001762YS02001759 CONDUIT    774.88     0  02:22      0.99    0.89    1.00
  YS02001765YS02001762 CONDUIT    776.25     0  02:22      0.99    0.73    1.00
  YS02001767YS02001765 CONDUIT    777.14     0  02:22      0.99    0.98    1.00
  YS02001770YS02001767 CONDUIT    777.56     0  02:22      0.99    3.08    1.00
  YS02001774YS02001770 CONDUIT    337.30     0  02:25      0.43    0.22    1.00
  YS02001779YS02001774 CONDUIT    336.55     0  02:25      0.43    0.17    1.00
  YS02001783YS02001784 CONDUIT   1164.66     0  02:24      2.32    1.61    1.00
  YS02001784YS02001785 CONDUIT   1166.07     0  02:24      2.32    2.71    1.00
  YS02001786YS02001788 CONDUIT   1165.76     0  02:24      2.49    2.25    0.89
  YS02001788YS02001790 CONDUIT   1173.86     0  02:23      2.72    0.87    0.84
  YS02001790YS02001791 CONDUIT   1282.31     0  02:27      3.43    1.40    0.70
  YS02001791YS02001793 CONDUIT   1235.83     0  02:26      6.76    0.53    0.43
  YS02001793JiankangQianchi CONDUIT   1281.44     0  02:20      2.55    0.10    0.63
  YS02001882YS02001884 CONDUIT     33.20     0  02:16      0.14    0.04    1.00
  YS02001884YS02001887 CONDUIT     45.36     0  02:15      0.10    0.06    1.00
  YS02001887YS02001890 CONDUIT    773.76     0  02:25      0.99    1.32    1.00
  YS02001890YS02001895 CONDUIT    517.24     0  02:26      0.66    0.24    1.00
  YS02001895YS02001898 CONDUIT    517.14     0  02:25      0.66    0.90    1.00
  YS02001898YS02001901 CONDUIT    517.06     0  02:26      0.66    0.33    1.00
  YS02001901YS02001904 CONDUIT    517.01     0  02:25      0.66    0.80    1.00
  YS02001904YS02001907 CONDUIT    517.68     0  02:27      0.66    0.18    1.00
  YS02001907YS02006553 CONDUIT    797.99     0  02:35      0.89    0.94    1.00
  YS02001910YS02001907 CONDUIT   1284.54     0  02:25      1.64    0.72    1.00
  YS02001915YS02001910 CONDUIT   1284.35     0  02:25      1.64    0.64    1.00
  YS02001918YS02001915 CONDUIT    459.02     0  02:25      0.58    0.25    1.00
  YS02001920YS02001918 CONDUIT    458.72     0  02:25      0.65    0.44    1.00
  YS02001923YS02001920 CONDUIT    455.84     0  02:25      0.71    0.20    1.00
  YS02001926YS02001923 CONDUIT    452.87     0  02:25      0.96    0.65    1.00
  YS02001929YS02001926 CONDUIT    451.26     0  02:25      1.10    0.21    1.00
  YS02006553YS02006556 CONDUIT    798.48     0  02:35      1.02    0.68    1.00
  YS02006556YS02006558 CONDUIT    799.01     0  02:35      1.02    0.63    1.00
  YS02006558YS02006561 CONDUIT   1164.37     0  02:24      4.12    2.57    1.00
  YS02006561YS02001783 CONDUIT   1164.60     0  02:24      2.32    0.60    1.00
  YS02163301YS02001633 CONDUIT    953.62     0  02:15      1.21    0.90    1.00
  YS02163601YS02164001 CONDUIT   1384.74     0  02:17      1.76    1.23    1.00
  YS02164001YS02001641 CONDUIT   1383.82     0  02:17      1.76    1.89    1.00
  YSB1154YSB6556       CONDUIT    438.87     0  02:25      1.14    0.79    1.00
  YSB1171HS02004479    CONDUIT    381.25     0  02:17      0.76    0.25    1.00
  YSB1174YSB1171       CONDUIT    365.71     0  02:25      0.95    0.56    1.00
  YSB6556YSB1171       CONDUIT    439.76     0  02:25      1.14    0.45    1.00
  CC-R1                PUMP       683.00     0  00:00              1.00
  CC-R2                PUMP       683.00     0  00:00              1.00
  CC-S1                PUMP       200.00     0  00:00              1.00
  CC-S2                PUMP       200.00     0  00:00              1.00
  JK-R1                PUMP      1000.00     0  00:00              1.00
  JK-R2                PUMP      1000.00     0  00:00              1.00
  JK-S                 PUMP       300.00     0  00:00              1.00
  XR-1                 PUMP        95.00     0  00:00              1.00
  XR-2                 PUMP        95.00     0  00:00              1.00
  XR-3                 PUMP        95.00     0  00:00              1.00
  XR-4                 PUMP        95.00     0  00:00              1.00
  
  
  ***************************
  Flow Classification Summary
  ***************************
  
  -------------------------------------------------------------------------------------
                      Adjusted    ---------- Fraction of Time in Flow Class ---------- 
                       /Actual         Up    Down  Sub   Sup   Up    Down  Norm  Inlet 
  Conduit               Length    Dry  Dry   Dry   Crit  Crit  Crit  Crit  Ltd   Ctrl  
  -------------------------------------------------------------------------------------
  1                       1.00   0.00  0.00  0.00  0.00  1.00  0.00  0.00  0.32  0.00
  HS02004478WS02006287    1.00   0.11  0.00  0.00  0.54  0.35  0.00  0.00  0.59  0.00
  HS02004479HS02004480    1.00   0.05  0.00  0.00  0.95  0.00  0.00  0.00  0.11  0.00
  HS02004480HS02004478    1.00   0.10  0.00  0.00  0.47  0.00  0.00  0.43  0.00  0.00
  HS02004770HS02004777    1.00   0.00  0.09  0.00  0.90  0.00  0.00  0.00  0.02  0.00
  HS02004777HS02004785    1.00   0.00  0.00  0.00  1.00  0.00  0.00  0.00  0.11  0.00
  HS02004785HS02004788    1.00   0.00  0.00  0.00  1.00  0.00  0.00  0.00  0.00  0.00
  HS02004788HS02004792    1.00   0.00  0.00  0.00  0.99  0.01  0.00  0.00  0.90  0.00
  HS02004792HS02004799    1.00   0.00  0.00  0.00  0.98  0.02  0.00  0.00  0.85  0.00
  HS02004799HS02004480    1.00   0.00  0.05  0.00  0.89  0.00  0.06  0.00  0.00  0.00
  HS02004802HS02004478    1.00   0.10  0.00  0.00  0.90  0.00  0.00  0.00  0.02  0.00
  HS02004807HS02004802    1.00   0.10  0.00  0.00  0.90  0.00  0.00  0.01  0.00  0.00
  HS02004817HS02004807    1.00   0.00  0.10  0.00  0.90  0.00  0.00  0.00  0.01  0.00
  HS02004817HS02004824    1.00   0.00  0.00  0.00  1.00  0.00  0.00  0.00  0.81  0.00
  HS02004824HS02004830    1.00   0.00  0.00  0.00  1.00  0.00  0.00  0.00  0.01  0.00
  HS02004830HS02004837    1.00   0.00  0.00  0.00  1.00  0.00  0.00  0.00  0.88  0.00
  HS02004837HS02004842    1.00   0.00  0.00  0.00  1.00  0.00  0.00  0.00  0.11  0.00
  HS02004842HS02004848    1.00   0.00  0.09  0.00  0.90  0.00  0.00  0.00  0.55  0.00
  HS02004848HS02004852    1.00   0.10  0.00  0.00  0.90  0.00  0.00  0.00  0.69  0.00
  HS02004852HS02004856    1.00   0.09  0.00  0.00  0.90  0.00  0.00  0.00  0.67  0.00
  HS02004856HS02004862    1.00   0.00  0.11  0.00  0.89  0.00  0.00  0.00  0.74  0.00
  HS02004862HS02004870    1.00   0.00  0.00  0.00  1.00  0.00  0.00  0.00  0.03  0.00
  HS02004870HS02004876    1.00   0.00  0.00  0.00  0.99  0.01  0.00  0.00  0.86  0.00
  HS02004876HS02004881    1.00   0.04  0.00  0.00  0.69  0.27  0.00  0.00  0.00  0.00
  HS02004881HS02006253    1.00   0.03  0.03  0.00  0.39  0.03  0.00  0.52  0.15  0.00
  HS02004901HS02004770    1.00   0.09  0.00  0.00  0.90  0.00  0.00  0.00  0.00  0.00
  WS02001211WS02001212    1.00   0.00  0.04  0.00  0.96  0.00  0.00  0.00  0.00  0.00
  WS02001212WS02001213    1.00   0.04  0.00  0.00  0.48  0.00  0.48  0.00  0.00  0.00
  WS02001213WS02003059    1.00   0.00  0.00  0.00  0.99  0.00  0.00  0.00  0.00  0.00
  WS02003059WS02003060    1.00   0.00  0.00  0.00  1.00  0.00  0.00  0.00  0.03  0.00
  WS02003060WS02003069    1.00   0.00  0.00  0.00  0.99  0.01  0.00  0.00  0.56  0.00
  WS02003066WSF200        1.00   0.07  0.00  0.00  0.00  0.93  0.00  0.00  0.66  0.00
  WS02003067WS02003066    1.00   0.07  0.00  0.00  0.93  0.00  0.00  0.00  0.00  0.00
  WS02003069WS02003072    1.00   0.00  0.00  0.00  1.00  0.00  0.00  0.00  0.69  0.00
  WS02003072WS02003073    1.00   0.00  0.00  0.00  0.00  0.00  0.00  1.00  0.00  0.00
  WS02004138WS02004139    1.00   0.00  0.01  0.00  0.96  0.01  0.00  0.02  0.98  0.00
  WS02004139WS02001211    1.00   0.00  0.00  0.00  0.99  0.00  0.00  0.00  0.00  0.00
  WS02004401WS02004402    1.00   0.04  0.00  0.00  0.96  0.00  0.00  0.00  0.00  0.00
  WS02004402WS02004403    1.00   0.04  0.00  0.00  0.96  0.00  0.00  0.00  0.00  0.00
  WS02004403WS02004404    1.00   0.00  0.04  0.00  0.96  0.00  0.00  0.00  0.00  0.00
  WS02004404WS02004405    1.00   0.00  0.00  0.00  1.00  0.00  0.00  0.00  0.00  0.00
  WS02004405WS02004406    1.00   0.00  0.00  0.00  1.00  0.00  0.00  0.00  0.00  0.00
  WS02004406WS02004407    1.00   0.00  0.05  0.00  0.95  0.00  0.00  0.00  0.00  0.00
  WS02004407WS02004409    1.00   0.05  0.00  0.00  0.94  0.00  0.00  0.00  0.82  0.00
  WS02004409WS02004410    1.00   0.05  0.00  0.00  0.95  0.00  0.00  0.00  0.00  0.00
  WS02004410WS02004411    1.00   0.06  0.00  0.00  0.94  0.00  0.00  0.00  0.00  0.00
  WS02004411WS02004412    1.00   0.06  0.00  0.00  0.94  0.00  0.00  0.00  0.00  0.00
  WS02004412WS02004413    1.00   0.06  0.00  0.00  0.94  0.00  0.00  0.00  0.01  0.00
  WS02004413WS02003067    1.00   0.06  0.01  0.00  0.00  0.00  0.93  0.00  0.00  0.00
  WS02006109WS02006110    1.00   0.00  0.01  0.00  0.97  0.00  0.03  0.00  0.00  0.00
  WS02006110WS02006113    1.00   0.01  0.03  0.00  0.97  0.00  0.00  0.00  0.00  0.00
  WS02006111WS02006112    1.00   0.04  0.00  0.00  0.96  0.00  0.00  0.00  0.77  0.00
  WS02006112WS02006115    1.00   0.04  0.00  0.00  0.96  0.00  0.00  0.00  0.00  0.00
  WS02006113WS02006111    1.00   0.03  0.00  0.00  0.28  0.68  0.00  0.00  0.06  0.00
  WS02006115WS02006116    1.00   0.04  0.00  0.00  0.95  0.00  0.00  0.01  0.00  0.00
  WS02006116WS02004401    1.00   0.04  0.00  0.00  0.96  0.00  0.00  0.00  0.00  0.00
  WS02006228WS02006109    1.00   0.00  0.00  0.00  1.00  0.00  0.00  0.00  0.00  0.00
  WS02006229WS02006228    1.00   0.00  0.00  0.00  0.99  0.00  0.00  0.01  0.00  0.00
  WS02006230WS02006229    1.00   0.00  0.00  0.00  0.98  0.00  0.00  0.02  0.00  0.00
  WS02006231WS02006230    1.00   0.00  0.00  0.00  0.51  0.00  0.48  0.00  0.00  0.00
  WS02006232WS02006231    1.00   0.00  0.00  0.00  0.99  0.00  0.00  0.00  0.00  0.00
  WS02006234WS02006232    1.00   0.00  0.00  0.00  1.00  0.00  0.00  0.00  0.20  0.00
  WS02006235WS02006234    1.00   0.00  0.00  0.00  0.76  0.00  0.24  0.00  0.00  0.00
  WS02006238WS02006235    1.00   0.00  0.00  0.00  1.00  0.00  0.00  0.00  0.00  0.00
  WS02006239WS02006238    1.00   0.00  0.00  0.00  1.00  0.00  0.00  0.00  0.39  0.00
  WS02006240WS02006239    1.00   0.00  0.00  0.00  0.65  0.00  0.00  0.35  0.00  0.00
[...]
  WS02006284WS02006280    1.00   0.10  0.00  0.00  0.16  0.02  0.00  0.72  0.00  0.00
  WS02006287WS02006284    1.00   0.09  0.02  0.00  0.44  0.45  0.00  0.00  0.64  0.00
  WSF200WS02003060        1.00   0.00  0.07  0.00  0.47  0.45  0.00  0.00  0.65  0.00
  YS02001580YS02001583    1.00   0.31  0.38  0.00  0.32  0.00  0.00  0.00  0.64  0.00
  YS02001583YS02001586    1.00   0.30  0.32  0.00  0.37  0.00  0.00  0.00  0.64  0.00
  YS02001586YS02001590    1.00   0.09  0.00  0.00  0.64  0.02  0.00  0.25  0.36  0.00
  YS02001590YS02001593    1.00   0.10  0.00  0.00  0.16  0.00  0.74  0.00  0.00  0.00
  YS02001593YS02001596    1.00   0.10  0.00  0.00  0.20  0.01  0.00  0.69  0.02  0.00
  YS02001596YS02001600    1.00   0.10  0.00  0.00  0.33  0.03  0.00  0.55  0.05  0.00
  YS02001600YS02001601    1.00   0.10  0.00  0.00  0.90  0.00  0.00  0.00  0.61  0.00
  YS02001601YS02001602    1.00   0.09  0.00  0.00  0.90  0.00  0.00  0.00  0.00  0.00
  YS02001602YS02001605    1.00   0.10  0.00  0.00  0.90  0.00  0.00  0.00  0.00  0.00
  YS02001605YS02001607    1.00   0.10  0.00  0.00  0.90  0.00  0.00  0.00  0.00  0.00
  YS02001607YS02001610    1.00   0.10  0.00  0.00  0.90  0.00  0.00  0.00  0.01  0.00
  YS02001610YS02001613    1.00   0.10  0.00  0.00  0.90  0.00  0.00  0.00  0.00  0.00
  YS02001613YS02001616    1.00   0.10  0.00  0.00  0.90  0.00  0.00  0.00  0.00  0.00
  YS02001616YS02001619    1.00   0.09  0.00  0.00  0.91  0.00  0.00  0.00  0.00  0.00
  YS02001619YS02001622    1.00   0.09  0.00  0.00  0.91  0.00  0.00  0.00  0.33  0.00
  YS02001622YS02001625    1.00   0.10  0.00  0.00  0.90  0.00  0.00  0.00  0.04  0.00
  YS02001625YS02001629    1.00   0.10  0.02  0.00  0.23  0.00  0.65  0.00  0.00  0.00
  YS02001629YS02163301    1.00   0.11  0.01  0.00  0.89  0.00  0.00  0.00  0.00  0.00
  YS02001633YS02163601    1.00   0.00  0.01  0.00  0.99  0.00  0.00  0.00  0.15  0.00
  YS02001641YS02001644    1.00   0.00  0.00  0.00  1.00  0.00  0.00  0.00  0.00  0.00
  YS02001644YS02001647    1.00   0.00  0.12  0.00  0.88  0.00  0.00  0.00  0.00  0.00
  YS02001647YS02001649    1.00   0.00  0.11  0.00  0.45  0.43  0.00  0.00  0.57  0.00
  YS02001649YS02001757    1.00   0.00  0.00  0.00  0.52  0.47  0.00  0.00  0.54  0.00
  YS02001652YS02001649    1.00   0.00  0.00  0.00  0.98  0.02  0.00  0.00  0.75  0.00
  YS02001655YS02001652    1.00   0.00  0.00  0.00  0.25  0.03  0.00  0.71  0.07  0.00
  YS02001658YS02001655    1.00   0.00  0.10  0.00  0.50  0.40  0.00  0.00  0.73  0.00
  YS02001661YS02001658    1.00   0.10  0.00  0.00  0.34  0.55  0.00  0.00  0.72  0.00
  YS02001664YS02001661    1.00   0.09  0.00  0.00  0.67  0.23  0.00  0.00  0.86  0.00
  YS02001745YS02001748    1.00   0.00  0.00  0.00  0.07  0.01  0.00  0.92  0.03  0.00
  YS02001748YS02001751    1.00   0.00  0.00  0.00  0.66  0.34  0.00  0.00  0.77  0.00
  YS02001751YS02001754    1.00   0.00  0.00  0.00  0.18  0.02  0.00  0.81  0.03  0.00
  YS02001754YS02001757    1.00   0.00  0.00  0.00  1.00  0.00  0.00  0.00  0.86  0.00
  YS02001757CaochengTiaoxuchi    1.00   0.00  0.00  0.00  0.86  0.14  0.00  0.00  0.83  0.00
  YS02001759YS02001757    1.00   0.00  0.00  0.00  1.00  0.00  0.00  0.00  0.61  0.00
  YS02001762YS02001759    1.00   0.00  0.00  0.00  1.00  0.00  0.00  0.00  0.04  0.00
  YS02001765YS02001762    1.00   0.00  0.00  0.00  1.00  0.00  0.00  0.00  0.72  0.00
  YS02001767YS02001765    1.00   0.00  0.00  0.00  1.00  0.00  0.00  0.00  0.00  0.00
  YS02001770YS02001767    1.00   0.00  0.00  0.00  1.00  0.00  0.00  0.00  0.00  0.00
  YS02001774YS02001770    1.00   0.00  0.10  0.00  0.75  0.00  0.15  0.00  0.03  0.00
  YS02001779YS02001774    1.00   0.00  0.00  0.00  1.00  0.00  0.00  0.00  0.78  0.00
  YS02001783YS02001784    1.00   0.00  0.12  0.00  0.88  0.00  0.00  0.00  0.57  0.00
  YS02001784YS02001785    1.00   0.00  0.00  0.00  1.00  0.00  0.00  0.00  0.16  0.00
  YS02001786YS02001788    1.00   0.00  0.00  0.00  0.59  0.41  0.00  0.00  0.00  0.00
  YS02001788YS02001790    1.00   0.00  0.00  0.00  0.16  0.84  0.00  0.00  0.80  0.00
  YS02001790YS02001791    1.00   0.00  0.00  0.00  0.02  0.98  0.00  0.00  0.17  0.00
  YS02001791YS02001793    1.00   0.00  0.00  0.00  0.00  1.00  0.00  0.00  0.00  0.00
  YS02001793JiankangQianchi    1.00   0.00  0.00  0.00  0.96  0.04  0.00  0.00  0.99  0.00
  YS02001882YS02001884    1.00   0.11  0.00  0.00  0.89  0.00  0.00  0.00  0.00  0.00
  YS02001884YS02001887    1.00   0.06  0.03  0.00  0.91  0.00  0.00  0.00  0.00  0.00
  YS02001887YS02001890    1.00   0.00  0.00  0.00  0.95  0.00  0.04  0.00  0.00  0.00
  YS02001890YS02001895    1.00   0.00  0.11  0.00  0.89  0.00  0.00  0.00  0.00  0.00
  YS02001895YS02001898    1.00   0.11  0.00  0.00  0.87  0.00  0.02  0.00  0.00  0.00
  YS02001898YS02001901    1.00   0.11  0.00  0.00  0.89  0.00  0.00  0.00  0.01  0.00
  YS02001901YS02001904    1.00   0.11  0.00  0.00  0.89  0.00  0.00  0.00  0.00  0.00
  YS02001904YS02001907    1.00   0.00  0.11  0.00  0.89  0.00  0.00  0.00  0.00  0.00
  YS02001907YS02006553    1.00   0.00  0.04  0.00  0.96  0.00  0.00  0.00  0.00  0.00
  YS02001910YS02001907    1.00   0.00  0.00  0.00  0.95  0.00  0.00  0.04  0.12  0.00
  YS02001915YS02001910    1.00   0.00  0.00  0.00  0.96  0.04  0.00  0.00  0.15  0.00
  YS02001918YS02001915    1.00   0.00  0.00  0.00  0.96  0.04  0.00  0.00  0.76  0.00
  YS02001920YS02001918    1.00   0.00  0.00  0.00  1.00  0.00  0.00  0.00  0.00  0.00
  YS02001923YS02001920    1.00   0.00  0.00  0.00  1.00  0.00  0.00  0.00  0.93  0.00
  YS02001926YS02001923    1.00   0.00  0.07  0.00  0.07  0.00  0.86  0.00  0.00  0.00
  YS02001929YS02001926    1.00   0.00  0.09  0.00  0.91  0.00  0.00  0.00  0.83  0.00
  YS02006553YS02006556    1.00   0.02  0.00  0.00  0.98  0.00  0.00  0.00  0.03  0.00
  YS02006556YS02006558    1.00   0.00  0.00  0.00  1.00  0.00  0.00  0.00  0.00  0.00
  YS02006558YS02006561    1.00   0.12  0.00  0.00  0.06  0.81  0.00  0.00  0.18  0.00
  YS02006561YS02001783    1.00   0.12  0.00  0.00  0.11  0.76  0.00  0.00  0.70  0.00
  YS02163301YS02001633    1.00   0.00  0.11  0.00  0.89  0.00  0.00  0.00  0.00  0.00
  YS02163601YS02164001    1.00   0.00  0.07  0.00  0.92  0.00  0.00  0.00  0.00  0.00
  YS02164001YS02001641    1.00   0.01  0.07  0.00  0.92  0.00  0.00  0.00  0.05  0.00
  YSB1154YSB6556          1.00   0.09  0.00  0.00  0.91  0.00  0.00  0.00  0.02  0.00
  YSB1171HS02004479       1.00   0.05  0.00  0.00  0.94  0.00  0.00  0.01  0.10  0.00
  YSB1174YSB1171          1.00   0.06  0.02  0.00  0.92  0.00  0.00  0.00  0.00  0.00
  YSB6556YSB1171          1.00   0.05  0.04  0.00  0.91  0.00  0.00  0.00  0.00  0.00
  
  
  *************************
  Conduit Surcharge Summary
  *************************
  
  ----------------------------------------------------------------------------
                                                           Hours        Hours 
                         --------- Hours Full --------   Above Full   Capacity
  Conduit                Both Ends  Upstream  Dnstream   Normal Flow   Limited
  ----------------------------------------------------------------------------
  HS02004478WS02006287        0.48      0.48      0.67      0.01         0.01
  HS02004479HS02004480        0.66      0.66      0.69      0.01         0.01
  HS02004480HS02004478        0.58      0.66      0.58      1.76         0.58
  HS02004770HS02004777        0.56      0.56      0.56      0.11         0.07
  HS02004777HS02004785        0.51      0.51      0.56      0.01         0.01
  HS02004785HS02004788        0.50      0.51      0.50      1.45         0.46
  HS02004788HS02004792        0.50      0.50      0.62      0.01         0.01
  HS02004792HS02004799        0.62      0.62      0.77      0.01         0.01
  HS02004799HS02004480        0.66      0.66      0.77      0.88         0.01
  HS02004802HS02004478        0.60      0.60      0.68      0.10         0.01
  HS02004807HS02004802        0.64      0.64      0.67      0.24         0.25
  HS02004817HS02004807        0.64      0.64      1.25      0.01         0.01
  HS02004817HS02004824        0.50      0.50      1.25      0.01         0.01
  HS02004824HS02004830        0.47      0.47      0.50      0.01         0.01
  HS02004830HS02004837        0.43      0.43      0.47      0.01         0.01
  HS02004837HS02004842        0.43      0.43      0.57      0.01         0.01
  HS02004842HS02004848        0.39      0.39      0.57      0.01         0.01
  HS02004848HS02004852        0.39      0.39      0.41      0.03         0.01
  HS02004852HS02004856        0.41      0.41      0.43      0.02         0.01
  HS02004856HS02004862        0.40      0.40      0.44      0.01         0.01
  HS02004862HS02004870        0.44      0.44      0.45      0.21         0.20
  HS02004870HS02004876        0.45      0.45      0.52      0.01         0.01
  HS02004876HS02004881        0.50      0.52      0.50      1.47         0.50
  HS02004881HS02006253        0.50      0.50      1.45      0.01         0.01
  HS02004901HS02004770        0.56      0.56      0.56      0.01         0.01
  WS02003072WS02003073        0.01      0.01      0.01      2.19         0.01
  WS02004401WS02004402        1.53      1.53      1.57      1.33         1.34
  WS02004402WS02004403        1.57      1.57      1.58      1.52         1.52
  WS02004403WS02004404        1.58      1.58      1.66      0.01         0.02
  WS02004404WS02004405        1.65      1.66      1.65      2.67         1.65
  WS02004405WS02004406        1.63      1.65      1.63      1.81         1.63
  WS02004406WS02004407        0.01      0.01      1.63      0.01         0.01
  WS02004407WS02004409        0.01      0.01      1.07      0.01         0.01
  WS02004409WS02004410        0.97      1.07      0.97      1.41         0.97
  WS02004410WS02004411        0.88      0.97      0.88      1.47         0.88
  WS02004411WS02004412        0.79      0.88      0.79      1.51         0.79
  WS02004412WS02004413        0.79      0.79      1.27      0.01         0.01
  WS02004413WS02003067        0.01      0.01      1.27      0.01         0.01
  WS02006109WS02006110        1.77      1.77      2.02      1.77         0.01
  WS02006110WS02006113        1.24      1.24      2.01      0.27         0.01
  WS02006111WS02006112        1.22      1.22      2.13      0.01         0.01
  WS02006112WS02006115        1.42      1.42      1.85      0.01         0.01
  WS02006113WS02006111        1.23      1.24      1.23      1.30         1.23
  WS02006115WS02006116        1.43      1.43      1.44      1.40         1.39
  WS02006116WS02004401        1.52      1.52      1.53      1.47         1.47
  WS02006228WS02006109        2.00      2.03      2.00      2.24         2.00
  WS02006229WS02006228        2.00      2.00      2.00      2.10         2.00
  WS02006230WS02006229        2.05      2.05      2.05      2.44         0.84
  WS02006231WS02006230        1.63      1.63      1.66      2.11         1.09
  WS02006232WS02006231        1.65      1.65      1.83      0.01         0.14
  WS02006234WS02006232        1.70      1.70      1.83      0.01         0.01
  WS02006235WS02006234        1.68      1.68      1.71      1.92         1.04
  WS02006238WS02006235        1.72      1.72      1.75      0.01         0.33
  WS02006239WS02006238        1.72      1.72      1.73      1.01         0.19
  WS02006240WS02006239        1.62      1.62      1.64      1.00         0.18
  WS02006242WS02006240        1.62      1.62      1.68      1.32         0.85
  WS02006243WS02006242        1.60      1.60      1.65      0.01         0.01
  WS02006245WS02006243        1.57      1.57      1.58      0.17         0.14
  WS02006247WS02006245        1.56      1.57      1.56      1.74         0.40
  WS02006248WS02006247        1.53      1.53      1.56      0.01         0.01
  WS02006249WS02006248        1.52      1.52      1.52      0.65         0.01
  WS02006251WS02006249        1.52      1.52      1.52      1.46         1.38
  WS02006252WS02006251        1.50      1.50      1.58      0.85         0.04
  WS02006253WS02006251        1.51      1.51      1.52      0.79         0.02
  WS02006256WS02006235        2.33      2.33      5.82      0.02         0.01
  WS02006280WS02006229        0.79      0.79      0.91      0.01         0.01
  WS02006284WS02006280        0.69      0.69      0.77      0.01         0.01
  WS02006287WS02006284        0.58      0.58      0.70      0.28         0.28
  YS02001580YS02001583        0.55      0.55      0.57      0.01         0.01
  YS02001583YS02001586        0.55      0.55      0.64      0.01         0.01
  YS02001586YS02001590        0.64      0.64      0.71      0.01         0.01
  YS02001590YS02001593        0.71      0.71      0.74      0.75         0.01
  YS02001593YS02001596        0.73      0.73      0.83      0.01         0.01
  YS02001596YS02001600        0.89      0.89      1.01      0.01         0.01
  YS02001600YS02001601        1.08      1.08      1.38      0.01         0.01
  YS02001601YS02001602        1.26      1.26      1.43      1.04         0.01
  YS02001602YS02001605        1.20      1.20      1.26      2.27         0.01
  YS02001605YS02001607        1.15      1.20      1.15      1.34         1.15
  YS02001607YS02001610        0.66      0.66      0.68      0.01         0.01
  YS02001610YS02001613        0.65      0.65      0.68      0.01         0.01
  YS02001613YS02001616        0.61      0.61      0.65      0.01         0.01
  YS02001616YS02001619        0.60      0.60      0.61      0.01         0.02
  YS02001619YS02001622        0.59      0.60      0.59      0.76         0.57
  YS02001622YS02001625        0.59      0.59      0.78      0.01         0.01
  YS02001625YS02001629        0.53      0.53      0.78      0.01         0.01
  YS02001629YS02163301        0.76      0.76      0.77      0.32         0.31
  YS02001633YS02163601        0.79      0.79      0.82      0.45         0.44
  YS02001641YS02001644        0.64      0.68      0.64      1.47         0.63
  YS02001644YS02001647        0.40      0.40      0.64      0.04         0.01
  YS02001647YS02001649        0.40      0.40      0.47      0.01         0.01
  YS02001649YS02001757        0.46      0.47      0.49      0.34         0.26
  YS02001652YS02001649        0.35      0.35      0.47      0.01         0.01
  YS02001655YS02001652        0.24      0.24      0.33      0.01         0.01
  YS02001658YS02001655        0.14      0.14      0.24      0.01         0.01
  YS02001661YS02001658        0.01      0.01      0.14      0.01         0.01
  YS02001664YS02001661        0.01      0.01      0.04      0.01         0.01
  YS02001745YS02001748        0.01      0.01      0.07      0.01         0.01
  YS02001748YS02001751        0.11      0.11      0.16      0.01         0.01
  YS02001751YS02001754        0.16      0.16      0.24      0.01         0.01
  YS02001754YS02001757        0.27      0.27      0.49      0.01         0.01
  YS02001757CaochengTiaoxuchi        0.36      0.49      0.79      0.39         0.20
  YS02001759YS02001757        0.42      0.42      0.49      0.03         0.03
  YS02001762YS02001759        0.39      0.39      0.42      0.01         0.02
  YS02001765YS02001762        0.37      0.37      0.39      0.01         0.01
  YS02001767YS02001765        0.35      0.35      0.37      0.01         0.04
  YS02001770YS02001767        0.34      0.34      0.35      0.48         0.29
  YS02001774YS02001770        0.33      0.33      0.38      0.01         0.01
  YS02001779YS02001774        0.25      0.25      0.38      0.01         0.01
  YS02001783YS02001784        0.42      0.44      0.42      0.61         0.42
  YS02001784YS02001785        0.32      0.42      0.32      0.86         0.32
  YS02001786YS02001788        0.01      0.32      0.01      0.73         0.01
  YS02001790YS02001791        0.01      0.01      0.01      0.40         0.01
  YS02001793JiankangQianchi        0.01      0.01      7.70      0.01         0.01
  YS02001882YS02001884        0.39      0.39      0.40      0.01         0.01
  YS02001884YS02001887        0.42      0.42      0.43      0.01         0.01
  YS02001887YS02001890        0.45      0.45      0.46      0.08         0.01
  YS02001890YS02001895        0.38      0.38      0.48      0.01         0.01
  YS02001895YS02001898        0.37      0.37      0.38      0.01         0.01
  YS02001898YS02001901        0.38      0.38      0.42      0.01         0.01
  YS02001901YS02001904        0.41      0.41      0.42      0.01         0.01
  YS02001904YS02001907        0.41      0.41      0.71      0.01         0.01
  YS02001907YS02006553        0.86      0.86      0.94      0.01         0.01
  YS02001910YS02001907        0.47      0.47      0.69      0.01         0.01
  YS02001915YS02001910        0.39      0.39      0.47      0.01         0.01
  YS02001918YS02001915        0.30      0.30      0.39      0.01         0.01
  YS02001920YS02001918        0.30      0.30      0.32      0.01         0.01
  YS02001923YS02001920        0.26      0.26      0.32      0.01         0.01
  YS02001926YS02001923        0.05      0.05      0.08      0.01         0.01
  YS02001929YS02001926        0.01      0.01      0.08      0.01         0.01
  YS02006553YS02006556        0.57      0.57      0.70      0.01         0.01
  YS02006556YS02006558        0.64      0.64      0.73      0.01         0.01
  YS02006558YS02006561        0.34      0.55      0.34      0.81         0.34
  YS02006561YS02001783        0.27      0.27      0.44      0.01         0.01
  YS02163301YS02001633        0.77      0.77      0.81      0.01         0.01
  YS02163601YS02164001        0.70      0.70      0.82      0.22         0.01
  YS02164001YS02001641        0.68      0.70      0.68      0.72         0.54
  YSB1154YSB6556              0.73      0.73      0.90      0.01         0.01
  YSB1171HS02004479           0.61      0.61      0.90      0.01         0.01
  YSB1174YSB1171              0.81      0.81      1.17      0.01         0.01
  YSB6556YSB1171              0.73      0.73      1.32      0.01         0.01
  
  
  ***************
  Pumping Summary
  ***************
  
  ---------------------------------------------------------------------------------------------------------
                                                  Min       Avg       Max     Total     Power    % Time Off
                        Percent   Number of      Flow      Flow      Flow    Volume     Usage    Pump Curve
  Pump                 Utilized   Start-Ups       LPS       LPS       LPS  10^6 ltr     Kw-hr    Low   High
  ---------------------------------------------------------------------------------------------------------
  CC-R1                   23.13          48      0.00    683.00    683.00     4.550     79.41    0.0   57.1
  CC-R2                   23.13          48      0.00    683.00    683.00     4.550     79.41    0.0   57.1
  CC-S1                   13.73           2      0.00    200.00    200.00     0.791      5.81    0.0    0.0
  CC-S2                   23.13          48      0.00    200.00    200.00     1.332      9.83    0.0    0.0
  JK-R1                    6.22          50      0.00   1000.00   1000.00     1.792     14.36    0.0    0.0
  JK-R2                    6.22          50      0.00   1000.00   1000.00     1.792     14.36    0.0    0.0
  JK-S                     3.42           4      0.00    300.00    300.00     0.295      4.93    0.0    0.0
  XR-1                    97.91           2      0.00     95.00     95.00     2.679      9.61    0.0    0.0
  XR-2                    93.94           2      0.00     95.00     95.00     2.570      8.77    0.0    0.0
  XR-3                     0.00           1      0.00     95.00     95.00     0.000      0.00    0.0    0.0
  XR-4                     0.00           1      0.00     95.00     95.00     0.000      0.00    0.0    0.0
  

  Analysis begun on:  Tue Jun 20 19:21:53 2023
  Analysis ended on:  Tue Jun 20 19:22:04 2023
  Total elapsed time: 00:00:11