
  OWA STORM WATER MANAGEMENT MODEL - VERSION v5.1.14 (OWA 2022-07-31)
  --------------------------------------------------------------

  WARNING 04: minimum elevation drop used for Conduit WS02004404WS02004405
  WARNING 03: negative offset ignored for Link YS02001904YS02001907
  
  *********************************************************
  NOTE: The summary statistics displayed in this report are
  based on results found at every computational time step,  
  not just on results from each reporting time step.
  *********************************************************
  
  ****************
  Analysis Options
  ****************
  Flow Units ............... LPS
  Process Models:
    Rainfall/Runoff ........ YES
    RDII ................... NO
    Snowmelt ............... NO
    Groundwater ............ NO
    Flow Routing ........... YES
    Ponding Allowed ........ NO
    Water Quality .......... NO
  Infiltration Method ...... HORTON
  Flow Routing Method ...... DYNWAVE
  Surcharge Method ......... EXTRAN
  Starting Date ............ 08/28/2015 08:00:00
  Ending Date .............. 08/28/2015 16:00:00
  Antecedent Dry Days ...... 8.0
  Report Time Step ......... 00:01:00
  Wet Time Step ............ 00:01:00
  Dry Time Step ............ 00:01:00
  Routing Time Step ........ 30.00 sec
  Variable Time Step ....... YES
  Maximum Trials ........... 8
  Number of Threads ........ 1
  Head Tolerance ........... 0.001500 m
  
  
  **************************        Volume         Depth
  Runoff Quantity Continuity     hectare-m            mm
  **************************     ---------       -------
  Initial LID Storage ......         0.072         1.184
  Total Precipitation ......         3.577        59.052
  Evaporation Loss .........         0.000         0.000
  Infiltration Loss ........         0.196         3.241
  Surface Runoff ...........         2.731        45.090
  Final Storage ............         0.723        11.933
  Continuity Error (%) .....        -0.046
  
  
  **************************        Volume        Volume
  Flow Routing Continuity        hectare-m      10^6 ltr
  **************************     ---------     ---------
  Dry Weather Inflow .......         0.630         6.296
  Wet Weather Inflow .......         2.731        27.314
  Groundwater Inflow .......         0.000         0.000
  RDII Inflow ..............         0.000         0.000
  External Inflow ..........         0.105         1.045
  External Outflow .........         2.264        22.638
  Flooding Loss ............         1.198        11.976
  Evaporation Loss .........         0.000         0.000
  Exfiltration Loss ........         0.000         0.000
  Initial Stored Volume ....         0.303         3.031
  Final Stored Volume ......         0.319         3.189
  Continuity Error (%) .....        -0.310
  
  
  *************************
  Highest Continuity Errors
  *************************
  Node YS02001583 (-15.65%)
  Node YS02001884 (4.57%)
  Node WS02006256 (2.89%)
  Node YS02001774 (1.85%)
  Node HS02004842 (1.62%)
  
  
  ***************************
  Time-Step Critical Elements
  ***************************
  Link WS02006280WS02006229 (64.06%)
  Link YS02001791YS02001793 (6.67%)
  Link WS02006238WS02006235 (6.56%)
  Link WS02004404WS02004405 (6.34%)
  Link WS02006252WS02006251 (3.59%)
  
  
  ********************************
  Highest Flow Instability Indexes
  ********************************
  Link WS02004404WS02004405 (27)
  Link WS02006113WS02006111 (27)
  Link WS02006238WS02006235 (23)
  Link WS02004403WS02004404 (22)
  Link WS02006256WS02006235 (22)
  
  
  *************************
  Routing Time Step Summary
  *************************
  Minimum Time Step           :     0.00 sec
  Average Time Step           :     2.83 sec
  Maximum Time Step           :     6.46 sec
  Percent in Steady State     :    -0.00
  Average Iterations per Step :     3.74
  Percent Not Converging      :    18.63
  
  
  ***************************
  Subcatchment Runoff Summary
  ***************************
  
  ------------------------------------------------------------------------------------------------------------------------------
                            Total      Total      Total      Total     Imperv       Perv      Total       Total     Peak  Runoff
                           Precip      Runon       Evap      Infil     Runoff     Runoff     Runoff      Runoff   Runoff   Coeff
  Subcatchment                 mm         mm         mm         mm         mm         mm         mm    10^6 ltr      LPS
  ------------------------------------------------------------------------------------------------------------------------------
  sub0                      59.05       0.00       0.00       0.99      53.68       3.15      56.82        0.05    34.45   0.962
  sub1                      59.05       0.00       0.00       1.48      46.00       4.34      50.34        0.33   203.19   0.853
  sub10                     59.05       0.00       0.00       0.95      43.11       2.89      46.00        0.51   324.31   0.779
  sub11                     59.05       0.00       0.00       0.87      40.06       2.70      42.76        0.50   340.15   0.724
  sub12                     59.05       0.00       0.00       1.52      40.73       4.71      45.44        0.40   291.95   0.770
  sub14                     59.05       0.00       0.00       0.94      37.94       2.90      40.84        0.39   261.89   0.692
  sub15                     59.05       0.00       0.00       4.19      34.11      10.78      44.89        0.77   438.26   0.760
  sub16                     59.05       0.00       0.00       4.48      33.27      12.30      45.57        0.48   298.76   0.772
  sub17                     59.05       0.00       0.00       4.79      36.72      12.90      49.63        0.43   259.42   0.840
  sub2                      59.05       0.00       0.00       6.57      33.62      13.67      47.29        0.44   203.21   0.801
  sub22                     59.05       0.00       0.00       7.39      31.84      17.20      49.04        3.10  1579.80   0.830
  sub23                     59.05       0.00       0.00       5.58      32.79      14.13      46.92        2.24  1255.06   0.795
  sub3                      59.05       0.00       0.00       7.03      33.29      13.02      46.32        1.04   433.40   0.784
  sub4                      59.05       0.00       0.00       1.59      45.30       4.16      49.45        1.03   472.74   0.837
  sub5                      59.05       0.00       0.00       0.85      44.50       2.59      47.08        0.53   332.26   0.797
  sub60                     59.05       0.00       0.00       1.35      39.18       4.12      43.30        0.57   391.04   0.733
  sub61                     59.05       0.00       0.00       2.07      39.15       6.14      45.29        0.83   564.52   0.767
  sub62                     59.05       0.00       0.00       0.92      41.73       2.80      44.53        1.22   773.47   0.754
  sub63                     59.05       0.00       0.00       3.75      33.53      10.27      43.80        0.99   616.55   0.742
  sub64                     59.05       0.00       0.00       1.81      38.18       5.10      43.28        1.04   615.72   0.733
  sub65                     59.05       0.00       0.00       1.66      41.21       4.65      45.86        1.26   714.08   0.777
  sub66                     59.05       0.00       0.00       4.33      32.42       9.25      41.67        1.94   888.25   0.706
  sub67                     59.05       0.00       0.00       0.92      42.79       2.89      45.68        0.85   620.12   0.774
  sub68                     59.05       0.00       0.00       1.59      37.79       4.71      42.50        1.17   770.70   0.720
  sub69                     59.05       0.00       0.00       1.42      39.70       5.60      45.30        1.68   936.21   0.767
  sub7                      59.05       0.00       0.00       1.00      40.67       3.12      43.78        0.15   102.88   0.741
  sub70                     59.05       0.00       0.00       4.72      31.80      11.72      43.52        1.26   515.37   0.737
  sub71                     59.05       0.00       0.00       0.85      37.91       2.53      40.44        1.06   629.34   0.685
  sub72                     59.05       0.00       0.00       0.80      40.95       2.36      43.31        0.60   317.44   0.733
  sub8                      59.05       0.00       0.00       0.98      39.52       3.02      42.54        0.27   184.18   0.720
  sub9                      59.05       0.00       0.00       0.95      38.31       2.93      41.24        0.20   134.16   0.698
  

  ***********************
  LID Performance Summary
  ***********************

  --------------------------------------------------------------------------------------------------------------------
                                         Total      Evap     Infil   Surface    Drain    Initial     Final  Continuity
                                        Inflow      Loss      Loss   Outflow   Outflow   Storage   Storage       Error
  Subcatchment      LID Control             mm        mm        mm        mm        mm        mm        mm           %
  --------------------------------------------------------------------------------------------------------------------
  sub1              GreenRoof            59.05      0.00      0.00      0.00      0.00      7.05     66.18       -0.11
  sub10             GreenRoof            59.05      0.00      0.00      0.00      0.00      7.05     66.18       -0.11
  sub11             GreenRoof            59.05      0.00      0.00      0.00      0.00      7.05     66.18       -0.11
  sub12             GreenRoof            59.05      0.00      0.00      0.00      0.00      7.05     66.18       -0.11
  sub14             GreenRoof            59.05      0.00      0.00      0.00      0.00      7.05     66.18       -0.11
  sub15             GreenRoof            59.05      0.00      0.00      0.00      0.00      7.05     66.18       -0.11
  sub16             GreenRoof            59.05      0.00      0.00      0.00      0.00      7.05     66.18       -0.11
  sub17             GreenRoof            59.05      0.00      0.00      0.00      0.00      7.05     66.18       -0.11
  sub2              GreenRoof            59.05      0.00      0.00      0.00      0.00      7.05     66.18       -0.11
  sub22             GreenRoof            59.05      0.00      0.00      0.00      0.00      7.05     66.18       -0.11
  sub23             GreenRoof            59.05      0.00      0.00      0.00      0.00      7.05     66.18       -0.11
  sub3              GreenRoof            59.05      0.00      0.00      0.00      0.00      7.05     66.18       -0.11
  sub4              GreenRoof            59.05      0.00      0.00      0.00      0.00      7.05     66.18       -0.11
  sub5              GreenRoof            59.05      0.00      0.00      0.00      0.00      7.05     66.18       -0.11
  sub60             GreenRoof            59.05      0.00      0.00      0.00      0.00      7.05     66.18       -0.11
  sub61             GreenRoof            59.05      0.00      0.00      0.00      0.00      7.05     66.18       -0.11
  sub62             GreenRoof            59.05      0.00      0.00      0.00      0.00      7.05     66.18       -0.11
  sub63             GreenRoof            59.05      0.00      0.00      0.00      0.00      7.05     66.18       -0.11
  sub64             GreenRoof            59.05      0.00      0.00      0.00      0.00      7.05     66.18       -0.11
  sub65             GreenRoof            59.05      0.00      0.00      0.00      0.00      7.05     66.18       -0.11
  sub66             GreenRoof            59.05      0.00      0.00      0.00      0.00      7.05     66.18       -0.11
  sub67             GreenRoof            59.05      0.00      0.00      0.00      0.00      7.05     66.18       -0.11
  sub68             GreenRoof            59.05      0.00      0.00      0.00      0.00      7.05     66.18       -0.11
  sub69             GreenRoof            59.05      0.00      0.00      0.00      0.00      7.05     66.18       -0.11
  sub7              GreenRoof            59.05      0.00      0.00      0.00      0.00      7.05     66.18       -0.11
  sub70             GreenRoof            59.05      0.00      0.00      0.00      0.00      7.05     66.18       -0.11
  sub71             GreenRoof            59.05      0.00      0.00      0.00      0.00      7.05     66.18       -0.11
  sub72             GreenRoof            59.05      0.00      0.00      0.00      0.00      7.05     66.18       -0.11
  sub8              GreenRoof            59.05      0.00      0.00      0.00      0.00      7.05     66.18       -0.11
  sub9              GreenRoof            59.05      0.00      0.00      0.00      0.00      7.05     66.18       -0.11
  
  ******************
  Node Depth Summary
  ******************
  
  ---------------------------------------------------------------------------------
                                 Average  Maximum  Maximum  Time of Max    Reported
                                   Depth    Depth      HGL   Occurrence   Max Depth
  Node                 Type       Meters   Meters   Meters  days hr:min      Meters
  ---------------------------------------------------------------------------------
  HS02004478           JUNCTION     0.25     1.86    11.09     0  01:54        1.86
  HS02004479           JUNCTION     0.34     1.73    10.94     0  01:38        1.73
  HS02004480           JUNCTION     0.30     1.73    10.97     0  01:38        1.73
  HS02004770           JUNCTION     0.30     1.42    11.25     0  01:35        1.42
  HS02004777           JUNCTION     0.32     1.48    11.28     0  01:35        1.48
  HS02004785           JUNCTION     0.22     1.49    11.39     0  01:35        1.41
  HS02004788           JUNCTION     0.18     1.42    11.32     0  01:35        1.42
  HS02004792           JUNCTION     0.25     1.60    11.12     0  01:34        1.60
  HS02004799           JUNCTION     0.37     1.76    10.97     0  01:35        1.76
  HS02004802           JUNCTION     0.35     1.92    11.05     0  01:38        1.92
  HS02004807           JUNCTION     0.32     1.92    11.09     0  01:36        1.92
  HS02004817           JUNCTION     0.62     2.44    11.29     0  01:36        2.44
  HS02004824           JUNCTION     0.18     2.01    11.41     0  01:36        2.01
  HS02004830           JUNCTION     0.18     2.03    11.50     0  01:38        2.03
  HS02004837           JUNCTION     0.15     2.04    11.62     0  01:38        2.04
  HS02004842           JUNCTION     0.44     2.22    11.49     0  01:38        2.22
  HS02004848           JUNCTION     0.13     1.93    11.53     0  01:38        1.80
  HS02004852           JUNCTION     0.13     2.00    11.51     0  01:38        1.80
  HS02004856           JUNCTION     0.19     2.04    11.47     0  01:38        1.91
  HS02004862           JUNCTION     0.15     2.00    11.38     0  01:37        2.00
  HS02004870           JUNCTION     0.14     2.10    11.39     0  01:38        2.10
  HS02004876           JUNCTION     0.20     2.26    11.29     0  01:37        2.26
  HS02004881           JUNCTION     0.13     2.15    11.18     0  01:38        2.15
  HS02004901           JUNCTION     0.31     1.42    11.24     0  01:35        1.42
  WS02001211           JUNCTION     0.64     0.87     5.71     0  01:43        0.86
  WS02001212           JUNCTION     0.38     0.66     5.72     0  01:42        0.58
  WS02001213           JUNCTION     0.60     0.98     5.74     0  01:42        0.93
  WS02003059           JUNCTION     0.66     0.98     5.67     0  01:44        0.96
  WS02003060           JUNCTION     0.38     0.70     5.63     0  01:43        0.70
  WS02003066           JUNCTION     0.23     0.46     6.02     0  01:37        0.45
  WS02003067           JUNCTION     0.54     0.96     6.28     0  01:37        0.95
  WS02003069           JUNCTION     0.43     0.78     5.37     0  01:44        0.78
  WS02003072           JUNCTION     0.49     0.82     5.19     0  01:44        0.81
  WS02003073           JUNCTION     0.29     0.52     4.59     0  01:45        0.52
  WS02004138           JUNCTION     0.13     0.14     7.39     0  00:29        0.14
  WS02004139           JUNCTION     0.58     0.79     5.70     0  01:40        0.78
  WS02004401           JUNCTION     0.77     2.33     8.33     0  01:55        2.15
  WS02004402           JUNCTION     0.79     2.25     8.21     0  01:55        2.15
  WS02004403           JUNCTION     0.79     2.13     8.06     0  01:55        2.08
  WS02004404           JUNCTION     0.85     2.09     7.94     0  01:35        2.09
  WS02004405           JUNCTION     0.84     1.99     7.84     0  01:35        1.99
  WS02004406           JUNCTION     0.83     1.86     7.69     0  01:34        1.71
  WS02004407           JUNCTION     0.26     0.95     7.27     0  01:38        0.94
  WS02004409           JUNCTION     0.53     1.58     7.35     0  01:36        1.44
  WS02004410           JUNCTION     0.53     1.72     7.44     0  01:36        1.29
  WS02004411           JUNCTION     0.54     1.53     7.21     0  01:36        1.20
  WS02004412           JUNCTION     0.54     1.28     6.92     0  01:36        1.12
  WS02004413           JUNCTION     0.68     1.71     7.18     0  01:36        1.14
  WS02006109           JUNCTION     0.99     2.64     9.26     0  01:34        2.64
  WS02006110           JUNCTION     0.92     2.76     9.34     0  01:34        2.41
  WS02006111           JUNCTION     0.44     2.68     9.39     0  01:34        1.84
  WS02006112           JUNCTION     0.99     2.68     8.56     0  01:34        2.51
  WS02006113           JUNCTION     0.51     2.73     9.62     0  01:34        1.86
  WS02006115           JUNCTION     0.70     2.39     8.52     0  01:55        2.10
  WS02006116           JUNCTION     0.76     2.41     8.45     0  01:55        2.14
  WS02006228           JUNCTION     1.05     3.03     9.68     0  01:35        3.02
  WS02006229           JUNCTION     1.06     3.25     9.94     0  01:35        3.21
  WS02006230           JUNCTION     0.97     2.65     9.39     0  01:35        2.65
  WS02006231           JUNCTION     0.69     2.24     9.36     0  01:54        2.24
  WS02006232           JUNCTION     0.77     2.18     9.22     0  01:35        2.18
  WS02006234           JUNCTION     0.64     1.96     9.12     0  01:34        1.96
  WS02006235           JUNCTION     0.65     2.00     9.16     0  01:34        2.00
  WS02006238           JUNCTION     0.67     2.15     9.29     0  01:34        2.15
  WS02006239           JUNCTION     0.61     2.03     9.24     0  01:33        2.03
  WS02006240           JUNCTION     0.56     2.07     9.37     0  02:55        1.79
  WS02006242           JUNCTION     0.59     1.55     8.82     0  00:05        1.55
  WS02006243           JUNCTION     0.48     1.48     8.90     0  00:05        1.41
  WS02006245           JUNCTION     0.46     1.56     9.04     0  01:34        1.38
  WS02006247           JUNCTION     0.46     1.47     8.97     0  01:34        1.47
  WS02006248           JUNCTION     0.41     1.10     8.69     0  00:05        1.10
  WS02006249           JUNCTION     0.43     1.09     8.69     0  00:05        1.09
  WS02006251           JUNCTION     0.50     2.21     9.88     0  01:35        2.21
  WS02006252           JUNCTION     0.29     1.50     9.74     0  00:00        1.50
  WS02006253           JUNCTION     0.59     3.52    11.16     0  01:35        3.52
  WS02006256           JUNCTION     0.91     2.35     9.28     0  00:00        2.35
  WS02006280           JUNCTION     0.33     1.83    10.10     0  01:35        1.83
  WS02006284           JUNCTION     0.59     2.08    10.48     0  01:35        2.08
  WS02006287           JUNCTION     0.32     1.84    10.80     0  01:38        1.84
  WSF200               JUNCTION     0.22     0.56     5.79     0  01:37        0.52
  YS02001580           JUNCTION     0.09     1.05     9.59     0  01:36        0.77
  YS02001583           JUNCTION     0.12     1.14     9.64     0  01:36        0.82
  YS02001586           JUNCTION     0.20     1.13     9.30     0  01:35        1.13
  YS02001590           JUNCTION     0.30     1.40     9.26     0  01:35        1.40
  YS02001593           JUNCTION     0.23     1.46     9.32     0  01:35        1.30
  YS02001596           JUNCTION     0.31     1.80     9.22     0  01:35        1.69
  YS02001600           JUNCTION     0.39     1.87     9.00     0  01:35        1.87
  YS02001601           JUNCTION     0.58     2.06     8.90     0  01:35        2.06
  YS02001602           JUNCTION     0.49     1.87     8.77     0  01:36        1.87
  YS02001605           JUNCTION     0.45     1.78     8.68     0  01:36        1.78
  YS02001607           JUNCTION     0.43     1.68     8.53     0  01:36        1.68
  YS02001610           JUNCTION     0.47     1.68     8.48     0  01:36        1.68
  YS02001613           JUNCTION     0.43     1.70     8.54     0  01:36        1.70
  YS02001616           JUNCTION     0.36     1.61     8.52     0  01:36        1.61
  YS02001619           JUNCTION     0.34     1.61     8.54     0  01:36        1.61
  YS02001622           JUNCTION     0.33     1.62     8.52     0  01:55        1.62
  YS02001625           JUNCTION     0.59     1.78     8.38     0  01:36        1.78
  YS02001629           JUNCTION     0.45     1.85     8.40     0  01:36        1.85
  YS02001633           JUNCTION     0.53     2.08     8.53     0  01:54        2.08
  YS02001641           JUNCTION     0.50     1.96     8.40     0  01:38        1.93
  YS02001644           JUNCTION     0.49     1.92     8.35     0  01:38        1.92
  YS02001647           JUNCTION     0.26     1.70     8.31     0  01:39        1.69
  YS02001649           JUNCTION     0.29     1.87     8.26     0  01:40        1.86
  YS02001652           JUNCTION     0.18     1.96     8.55     0  01:38        1.71
  YS02001655           JUNCTION     0.12     2.09     8.94     0  01:38        1.49
  YS02001658           JUNCTION     0.09     1.73     8.87     0  01:39        1.24
  YS02001661           JUNCTION     0.14     1.05     8.46     0  01:40        1.02
  YS02001664           JUNCTION     0.06     0.52     8.44     0  01:40        0.38
  YS02001745           JUNCTION     0.05     0.83     8.35     0  01:39        0.69
  YS02001748           JUNCTION     0.08     1.73     8.81     0  01:39        1.11
  YS02001751           JUNCTION     0.09     1.68     8.56     0  01:39        1.29
  YS02001754           JUNCTION     0.13     1.71     8.31     0  01:39        1.53
  YS02001757           JUNCTION     0.28     1.92     8.18     0  01:39        1.86
  YS02001759           JUNCTION     0.23     1.87     8.24     0  01:39        1.85
  YS02001762           JUNCTION     0.22     1.88     8.28     0  01:39        1.84
  YS02001765           JUNCTION     0.20     1.88     8.33     0  01:39        1.82
  YS02001767           JUNCTION     0.20     1.88     8.37     0  01:39        1.82
  YS02001770           JUNCTION     0.21     1.92     8.42     0  01:39        1.87
  YS02001774           JUNCTION     0.28     1.99     8.41     0  01:39        1.95
  YS02001779           JUNCTION     0.11     1.68     8.37     0  01:38        1.68
  YS02001783           JUNCTION     0.25     1.35     7.50     0  01:54        1.35
  YS02001784           JUNCTION     0.26     1.37     7.44     0  01:54        1.11
  YS02001786           JUNCTION     0.22     1.01     7.04     0  01:37        0.87
  YS02001788           JUNCTION     0.16     0.62     6.60     0  01:38        0.62
  YS02001790           JUNCTION     0.19     0.72     6.37     0  01:38        0.72
  YS02001791           JUNCTION     0.12     0.44     5.91     0  01:42        0.44
  YS02001793           JUNCTION     0.06     0.31     5.14     0  01:39        0.28
  YS02001882           JUNCTION     0.31     1.83     8.55     0  01:37        1.83
  YS02001884           JUNCTION     0.40     1.93     8.55     0  01:37        1.93
  YS02001887           JUNCTION     0.47     2.00     8.54     0  01:55        2.00
  YS02001890           JUNCTION     0.50     1.81     8.32     0  01:37        1.81
  YS02001895           JUNCTION     0.28     1.75     8.50     0  01:54        1.75
  YS02001898           JUNCTION     0.28     1.77     8.51     0  01:37        1.77
  YS02001901           JUNCTION     0.40     1.76     8.37     0  01:37        1.69
  YS02001904           JUNCTION     0.38     1.66     8.29     0  01:37        1.65
  YS02001907           JUNCTION     0.69     1.96     8.25     0  01:37        1.96
  YS02001910           JUNCTION     0.49     2.05     8.55     0  01:37        1.85
  YS02001915           JUNCTION     0.31     1.98     8.70     0  01:37        1.72
  YS02001918           JUNCTION     0.15     1.81     8.88     0  01:37        1.42
  YS02001920           JUNCTION     0.24     2.14     9.14     0  01:38        1.51
  YS02001923           JUNCTION     0.12     2.03     9.29     0  01:38        1.27
  YS02001926           JUNCTION     0.15     1.90     9.35     0  01:38        1.10
  YS02001929           JUNCTION     0.08     1.78     9.47     0  01:38        0.88
  YS02006553           JUNCTION     0.69     1.98     8.27     0  01:38        1.98
  YS02006556           JUNCTION     0.67     1.95     8.27     0  01:38        1.95
  YS02006558           JUNCTION     0.71     2.01     8.27     0  01:37        1.99
  YS02006561           JUNCTION     0.15     0.94     7.60     0  01:37        0.88
  YS02163301           JUNCTION     0.47     2.03     8.55     0  01:54        2.03
  YS02163601           JUNCTION     0.56     2.06     8.45     0  01:38        2.03
  YS02164001           JUNCTION     0.49     1.97     8.43     0  01:38        1.94
  YSB1154              JUNCTION     0.47     1.98    11.04     0  01:35        1.90
  YSB1171              JUNCTION     0.62     1.95    10.85     0  01:35        1.95
  YSB1174              JUNCTION     0.42     1.83    10.94     0  01:35        1.79
  YSB6556              JUNCTION     0.37     1.80    10.97     0  01:35        1.73
  CC-1                 OUTFALL      0.00     0.00     0.00     0  00:00        0.00
  CC-2                 OUTFALL      0.00     0.00     0.00     0  00:00        0.00
  JK-1                 OUTFALL      0.00     0.00     0.00     0  00:00        0.00
  JK-2                 OUTFALL      0.00     0.00     0.00     0  00:00        0.00
  WSC                  OUTFALL      0.29     0.52     1.19     0  01:45        0.52
  CC-storage           STORAGE      0.52     0.80     6.30     0  01:50        0.80
  JK-storage           STORAGE      1.38     4.24     5.04     0  01:44        4.16
  XR-storage           STORAGE      7.86     9.26     7.26     0  08:00        9.26
  
  
  *******************
  Node Inflow Summary
  *******************
  
  -------------------------------------------------------------------------------------------------
                                  Maximum  Maximum                  Lateral       Total        Flow
                                  Lateral    Total  Time of Max      Inflow      Inflow     Balance
                                   Inflow   Inflow   Occurrence      Volume      Volume       Error
  Node                 Type           LPS      LPS  days hr:min    10^6 ltr    10^6 ltr     Percent
  -------------------------------------------------------------------------------------------------
  HS02004478           JUNCTION      0.00  2274.87     0  01:39           0        7.71      -0.017
  HS02004479           JUNCTION      0.00   564.10     0  01:36           0       0.713       0.172
  HS02004480           JUNCTION      0.00  2216.52     0  01:36           0        5.95       0.043
  HS02004770           JUNCTION   1255.06  1255.06     0  01:39        2.24        2.46       0.121
  HS02004777           JUNCTION      0.03   927.80     0  01:35    0.000864        1.76       0.305
  HS02004785           JUNCTION      0.15   924.82     0  01:35     0.00432        1.76       0.033
  HS02004788           JUNCTION    439.93  1167.42     0  01:35        0.82        2.58       0.010
  HS02004792           JUNCTION   1580.08  2331.81     0  01:40        3.11        5.68       0.004
  HS02004799           JUNCTION    261.89  1707.05     0  01:36       0.389        5.28       0.055
  HS02004802           JUNCTION      0.00   941.92     0  01:40           0        1.78       0.207
  HS02004807           JUNCTION    340.15   941.48     0  01:40       0.497        1.82       0.229
  HS02004817           JUNCTION      0.60   624.34     0  01:41      0.0173        1.38       1.235
  HS02004824           JUNCTION    472.79   817.26     0  01:36        1.03         1.6       0.003
  HS02004830           JUNCTION      0.15   819.16     0  01:36     0.00432       0.814       0.089
  HS02004837           JUNCTION    330.66  1140.64     0  01:36        0.69        1.15       0.103
  HS02004842           JUNCTION      0.00  1069.78     0  01:36           0        0.79       1.651
  HS02004848           JUNCTION    433.40  1361.31     0  01:36        1.04        1.66       0.018
  HS02004852           JUNCTION      0.00  1295.57     0  01:37           0        1.49       0.007
  HS02004856           JUNCTION    134.16  1428.74     0  01:37       0.198        1.69       0.075
  HS02004862           JUNCTION    203.41  1539.69     0  01:37       0.446        2.14       0.036
  HS02004870           JUNCTION    184.18  1668.13     0  01:37       0.272        2.41      -0.016
  HS02004876           JUNCTION    203.19  1689.95     0  01:37       0.335        2.74       0.004
  HS02004881           JUNCTION    102.88  1797.91     0  01:37       0.148        2.91      -0.056
  HS02004901           JUNCTION    298.76   503.44     0  01:42       0.477       0.717       0.238
  WS02001211           JUNCTION      7.35   350.40     0  01:41       0.212        5.45       0.608
  WS02001212           JUNCTION      0.00   443.55     0  01:38           0        5.43       0.289
  WS02001213           JUNCTION      0.00   374.50     0  01:38           0        5.42       0.320
  WS02003059           JUNCTION      0.00   448.83     0  01:37           0        5.43       0.586
  WS02003060           JUNCTION     16.53  1567.23     0  01:44       0.476        12.9       0.113
  WS02003066           JUNCTION      0.00  1332.50     0  01:39           0        7.07       0.020
  WS02003067           JUNCTION      0.00  1304.55     0  01:39           0        7.07       0.062
  WS02003069           JUNCTION      0.32  1531.36     0  01:43     0.00922        12.9       0.120
  WS02003072           JUNCTION      0.00  1521.97     0  01:44           0        12.9       0.162
  WS02003073           JUNCTION      1.82  1527.64     0  01:44      0.0524        12.9       0.167
  WS02004138           JUNCTION      0.00   380.00     0  00:00           0        5.25       0.054
  WS02004139           JUNCTION      0.32   324.17     0  01:40     0.00924        5.26       0.507
  WS02004401           JUNCTION      0.00  1334.21     0  01:37           0        7.18       0.145
  WS02004402           JUNCTION      0.00  1334.94     0  01:37           0        7.17       0.147
  WS02004403           JUNCTION      0.00  1333.69     0  01:37           0        7.15       0.143
  WS02004404           JUNCTION      0.16  1332.11     0  01:37     0.00467        7.15       0.117
  WS02004405           JUNCTION      0.04  1333.24     0  01:36      0.0011        7.14       0.178
  WS02004406           JUNCTION      0.00  1334.62     0  01:36           0        7.13       0.297
  WS02004407           JUNCTION      0.00  1334.77     0  01:36           0        7.11       0.020
  WS02004409           JUNCTION      0.00  1305.10     0  01:35           0        7.11       0.047
  WS02004410           JUNCTION      0.00  1304.00     0  01:39           0         7.1       0.066
  WS02004411           JUNCTION      0.00  1304.23     0  01:39           0         7.1       0.080
  WS02004412           JUNCTION      0.00  1304.50     0  01:39           0        7.09       0.102
  WS02004413           JUNCTION      0.00  1304.53     0  01:39           0        7.09       0.191
  WS02006109           JUNCTION      1.23  1274.59     0  01:40      0.0354        6.98       0.147
  WS02006110           JUNCTION      0.00  1192.94     0  01:34           0        6.79       0.102
  WS02006111           JUNCTION      0.00  1170.13     0  01:34           0        6.78       0.008
  WS02006112           JUNCTION    259.42  1335.29     0  01:37       0.426         7.2       0.269
  WS02006113           JUNCTION      0.00  1191.29     0  01:34           0        6.78       0.036
  WS02006115           JUNCTION      0.00  1334.44     0  01:37           0        7.18       0.093
  WS02006116           JUNCTION      0.00  1334.64     0  01:37           0        7.18       0.025
  WS02006228           JUNCTION      0.00  1273.71     0  01:40           0        6.95       0.075
  WS02006229           JUNCTION      0.00  2275.67     0  01:39           0        8.98       0.074
  WS02006230           JUNCTION     10.28  1012.24     0  01:39       0.296        3.34       0.260
  WS02006231           JUNCTION      0.00   460.81     0  01:54           0        2.26      -0.183
  WS02006232           JUNCTION      0.00   456.55     0  01:54           0        2.24       0.194
  WS02006234           JUNCTION      0.00   453.22     0  01:54           0        2.21      -0.197
  WS02006235           JUNCTION      0.00   502.70     0  01:54           0        2.11      -0.004
  WS02006238           JUNCTION      0.00   461.65     0  00:06           0        2.06      -0.172
  WS02006239           JUNCTION      0.00   488.54     0  00:06           0        2.04      -0.211
  WS02006240           JUNCTION      0.00   568.63     0  00:06           0        2.03      -0.059
  WS02006242           JUNCTION      0.00   620.39     0  00:05           0        2.02      -0.093
  WS02006243           JUNCTION      0.00   663.71     0  00:05           0        1.69      -0.492
  WS02006245           JUNCTION      0.00   668.41     0  00:05           0         1.7       0.769
  WS02006247           JUNCTION      0.00   668.71     0  00:05           0        1.69      -0.290
  WS02006248           JUNCTION      0.00   669.97     0  00:05           0        1.84      -0.409
  WS02006249           JUNCTION      0.00  1379.90     0  01:38           0         3.9       0.243
  WS02006251           JUNCTION      0.08  1610.75     0  01:38     0.00222        4.06      -0.123
  WS02006252           JUNCTION      0.00  2096.08     0  01:40           0        2.86      -1.264
  WS02006253           JUNCTION     34.45  1608.48     0  01:38       0.046        3.09      -0.166
  WS02006256           JUNCTION      0.00  1500.00     0  00:20           0       0.699       2.980
  WS02006280           JUNCTION      0.00  2274.70     0  01:39           0        7.69      -0.019
  WS02006284           JUNCTION      0.10  2274.59     0  01:39     0.00275        7.69       0.010
  WS02006287           JUNCTION      0.00  2275.15     0  01:39           0        7.69       0.034
  WSF200               JUNCTION      0.00  1325.77     0  01:39           0        7.07       0.010
  YS02001580           JUNCTION      0.00   273.91     0  01:36           0     0.00491       0.898
  YS02001583           JUNCTION      0.00   277.11     0  01:36           0      0.0147     -13.533
  YS02001586           JUNCTION    515.37   515.40     0  01:42        1.26        1.27       0.129
  YS02001590           JUNCTION      0.00   331.64     0  01:54           0         1.1      -0.035
  YS02001593           JUNCTION      0.00   322.09     0  01:54           0         1.1       0.022
  YS02001596           JUNCTION      0.00   318.18     0  01:54           0         1.1       0.011
  YS02001600           JUNCTION      0.00   318.63     0  01:54           0         1.1       0.017
  YS02001601           JUNCTION    936.21  1253.51     0  01:40        1.68        2.78       0.031
  YS02001602           JUNCTION      0.00   589.85     0  01:36           0        1.97       0.021
  YS02001605           JUNCTION      0.00   589.47     0  01:36           0         1.9       0.023
  YS02001607           JUNCTION      0.00   589.52     0  01:36           0         1.9       0.075
  YS02001610           JUNCTION      0.00   563.52     0  01:36           0        1.91       0.116
  YS02001613           JUNCTION      0.00   533.85     0  01:36           0        1.63       0.086
  YS02001616           JUNCTION      0.00   513.28     0  02:05           0        1.63       0.009
  YS02001619           JUNCTION    888.25   947.46     0  01:55        1.94        3.56      -0.015
  YS02001622           JUNCTION      0.00   954.21     0  01:55           0        3.54       0.009
  YS02001625           JUNCTION      0.00   968.31     0  01:41           0        3.55       0.249
  YS02001629           JUNCTION      0.00   958.34     0  01:55           0        3.15       0.007
  YS02001633           JUNCTION    714.28  1373.26     0  01:37        1.27         4.4       0.074
  YS02001641           JUNCTION      0.00  1371.95     0  01:37           0        4.39       0.067
  YS02001644           JUNCTION    615.76  1909.32     0  01:37        1.04        5.42       0.059
  YS02001647           JUNCTION      0.00  1909.36     0  01:37           0        5.39       0.004
  YS02001649           JUNCTION      0.00  2249.02     0  01:38           0        6.39       0.004
  YS02001652           JUNCTION      0.00   748.11     0  01:40           0       0.998      -0.187
  YS02001655           JUNCTION      0.15   843.16     0  01:38     0.00443           1       0.160
  YS02001658           JUNCTION      0.00   743.92     0  01:40           0       0.994      -0.092
  YS02001661           JUNCTION      0.00   815.96     0  01:40           0       0.994       0.017
  YS02001664           JUNCTION    616.55   616.55     0  01:39       0.994       0.994      -0.007
  YS02001745           JUNCTION    391.05   498.25     0  01:39       0.569        0.57       0.205
  YS02001748           JUNCTION      0.04   643.07     0  01:38      0.0013       0.574      -0.300
  YS02001751           JUNCTION      0.01   489.86     0  01:40    0.000317       0.582       0.172
  YS02001754           JUNCTION      0.26   491.49     0  01:40     0.00749       0.594      -0.314
  YS02001757           JUNCTION      0.00  3467.49     0  01:40           0        9.05       0.017
  YS02001759           JUNCTION    564.56  1377.19     0  01:38       0.832        2.06      -0.003
  YS02001762           JUNCTION      0.00   808.43     0  01:38           0        1.23      -0.005
  YS02001765           JUNCTION      0.00   803.43     0  01:38           0        1.23       0.012
  YS02001767           JUNCTION      0.54   799.18     0  01:38      0.0154        1.23      -0.013
  YS02001770           JUNCTION    773.62   786.52     0  01:38        1.22        1.27      -0.048
  YS02001774           JUNCTION      0.00   559.62     0  01:38           0      0.0668       1.888
  YS02001779           JUNCTION      0.01   573.53     0  01:38    0.000144      0.0247      -2.364
  YS02001783           JUNCTION      0.00  1155.00     0  01:38           0        3.22       0.004
  YS02001784           JUNCTION      1.06  1156.39     0  01:38      0.0305        3.26       0.022
  YS02001786           JUNCTION      0.06  1155.94     0  01:38     0.00162        3.26       0.010
  YS02001788           JUNCTION      0.07  1155.84     0  01:38     0.00204        3.26       0.009
  YS02001790           JUNCTION      0.15  1170.85     0  01:38     0.00446        3.26       0.028
  YS02001791           JUNCTION      0.00  1283.08     0  01:41           0        3.26      -0.029
  YS02001793           JUNCTION      0.00  1253.72     0  01:39           0        3.26       0.008
  YS02001882           JUNCTION      0.00   120.24     0  01:36           0      0.0127       3.066
  YS02001884           JUNCTION      0.00   138.41     0  01:36           0      0.0487       4.789
  YS02001887           JUNCTION    620.57   630.94     0  01:38       0.863       0.896       0.485
  YS02001890           JUNCTION      0.00   634.42     0  01:37           0       0.856       0.584
  YS02001895           JUNCTION      0.00   627.31     0  01:37           0       0.837       0.185
  YS02001898           JUNCTION      0.00   630.75     0  01:37           0       0.835       0.000
  YS02001901           JUNCTION      0.00   635.43     0  01:37           0       0.838       0.405
  YS02001904           JUNCTION      0.00   637.41     0  01:37           0       0.847       0.347
  YS02001907           JUNCTION      0.00  1618.67     0  01:39           0        2.58       0.707
  YS02001910           JUNCTION      0.00  1089.24     0  01:39           0        1.74       0.422
  YS02001915           JUNCTION    629.36  1088.25     0  01:39        1.06        1.79       0.075
  YS02001918           JUNCTION      0.00   807.03     0  01:37           0       0.768      -0.002
  YS02001920           JUNCTION      2.87   738.18     0  01:37      0.0827        0.74       0.107
  YS02001923           JUNCTION      0.04   992.20     0  01:37     0.00109       0.638      -0.249
  YS02001926           JUNCTION      0.05  1266.23     0  01:38      0.0015       0.618      -0.478
  YS02001929           JUNCTION    317.44  1174.63     0  01:38       0.595       0.603      -0.261
  YS02006553           JUNCTION      0.00   838.02     0  01:54           0        2.08       0.581
  YS02006556           JUNCTION      0.00   805.65     0  01:55           0         2.1       0.404
  YS02006558           JUNCTION    771.58  1193.50     0  01:37        1.19        3.26       0.110
  YS02006561           JUNCTION      0.00  1202.29     0  01:37           0        3.22      -0.001
  YS02163301           JUNCTION      0.00   950.15     0  01:55           0        3.15       0.047
  YS02163601           JUNCTION      0.11  1373.27     0  01:37     0.00317        4.38       0.112
  YS02164001           JUNCTION      0.00  1374.04     0  01:37           0        4.38       0.056
  YSB1154              JUNCTION    332.26   332.26     0  01:39       0.533       0.534       0.293
  YSB1171              JUNCTION      0.00   618.93     0  01:39           0       0.938       0.673
  YSB1174              JUNCTION    291.95   291.95     0  01:38       0.397       0.398       0.335
  YSB6556              JUNCTION      0.00   332.57     0  01:39           0       0.535       0.244
  CC-1                 OUTFALL       0.00  3415.00     0  00:05           0        1.21       0.000
  CC-2                 OUTFALL       0.00  3415.00     0  00:05           0        5.88       0.000
  JK-1                 OUTFALL       0.00  5000.00     0  01:35           0       0.997       0.000
  JK-2                 OUTFALL       0.00  5000.00     0  01:35           0        1.68       0.000
  WSC                  OUTFALL       0.00  1528.07     0  01:45           0        12.9       0.000
  CC-storage           STORAGE       0.00  3467.15     0  01:40           0        11.3      -0.181
  JK-storage           STORAGE       0.00  1349.93     0  01:40           0        3.41      -0.534
  XR-storage           STORAGE     200.00   200.00     0  00:00        5.76        6.36       0.001
  
  
  **********************
  Node Surcharge Summary
  **********************
  
  Surcharging occurs when water rises above the top of the highest conduit.
  ---------------------------------------------------------------------
                                               Max. Height   Min. Depth
                                   Hours       Above Crown    Below Rim
  Node                 Type      Surcharged         Meters       Meters
  ---------------------------------------------------------------------
  HS02004478           JUNCTION        0.40          0.940        0.000
  HS02004479           JUNCTION        0.54          0.933        0.117
  HS02004480           JUNCTION        0.58          1.016        0.084
  HS02004770           JUNCTION        0.50          0.720        0.000
  HS02004777           JUNCTION        0.51          0.780        0.000
  HS02004785           JUNCTION        0.45          0.790        0.000
  HS02004788           JUNCTION        0.44          0.720        0.000
  HS02004792           JUNCTION        0.56          0.900        0.000
  HS02004799           JUNCTION        0.65          1.060        0.000
  HS02004802           JUNCTION        0.58          1.210        0.000
  HS02004807           JUNCTION        0.55          1.220        0.000
  HS02004817           JUNCTION        1.08          1.740        0.000
  HS02004824           JUNCTION        0.43          1.310        0.000
  HS02004830           JUNCTION        0.39          1.330        0.000
  HS02004837           JUNCTION        0.34          1.340        0.000
  HS02004842           JUNCTION        0.49          1.520        0.000
  HS02004848           JUNCTION        0.32          1.234        0.136
  HS02004852           JUNCTION        0.33          1.296        0.124
  HS02004856           JUNCTION        0.31          1.269        0.031
  HS02004862           JUNCTION        0.36          1.300        0.000
  HS02004870           JUNCTION        0.38          1.400        0.000
  HS02004876           JUNCTION        0.44          1.560        0.000
  HS02004881           JUNCTION        0.42          1.450        0.000
  HS02004901           JUNCTION        0.51          0.720        0.000
  WS02004401           JUNCTION        1.38          1.331        0.329
  WS02004402           JUNCTION        1.42          1.253        0.487
  WS02004403           JUNCTION        1.43          1.128        0.902
  WS02004404           JUNCTION        1.54          1.093        1.687
  WS02004405           JUNCTION        1.53          0.991        1.809
  WS02004406           JUNCTION        1.51          0.857        1.593
  WS02004409           JUNCTION        0.79          0.580        1.780
  WS02004410           JUNCTION        0.75          0.719        1.821
  WS02004411           JUNCTION        0.71          0.528        2.002
  WS02004412           JUNCTION        0.65          0.280        2.030
  WS02004413           JUNCTION        1.07          0.715        1.485
  WS02006109           JUNCTION        1.76          1.820        0.000
  WS02006110           JUNCTION        1.61          1.850        0.000
  WS02006111           JUNCTION        1.03          1.870        0.000
  WS02006112           JUNCTION        1.65          1.680        0.000
  WS02006113           JUNCTION        1.04          1.930        0.000
  WS02006115           JUNCTION        1.24          1.376        0.874
  WS02006116           JUNCTION        1.26          1.353        0.937
  WS02006228           JUNCTION        1.76          2.200        0.000
  WS02006229           JUNCTION        0.74          1.070        0.000
  WS02006230           JUNCTION        1.49          1.570        0.000
  WS02006231           JUNCTION        1.50          1.530        0.000
  WS02006232           JUNCTION        1.62          1.480        0.000
  WS02006234           JUNCTION        1.48          1.240        0.000
  WS02006235           JUNCTION        1.49          1.290        0.000
  WS02006238           JUNCTION        1.53          1.430        0.000
  WS02006239           JUNCTION        1.44          1.290        0.000
  WS02006240           JUNCTION        1.41          1.364        0.026
  WS02006242           JUNCTION        1.44          0.820        0.000
  WS02006243           JUNCTION        1.31          0.770        0.000
  WS02006245           JUNCTION        1.26          0.850        0.000
  WS02006247           JUNCTION        1.26          0.760        0.000
  WS02006248           JUNCTION        1.20          0.380        0.000
  WS02006249           JUNCTION        1.21          0.390        0.000
  WS02006251           JUNCTION        0.83          1.180        0.000
  WS02006252           JUNCTION        1.17          1.100        0.000
  WS02006253           JUNCTION        0.90          2.480        0.000
  WS02006256           JUNCTION        5.41          2.050        0.000
  WS02006280           JUNCTION        0.66          0.780        0.000
  WS02006284           JUNCTION        0.59          0.800        0.000
  WS02006287           JUNCTION        0.51          0.844        0.046
  YS02001580           JUNCTION        0.47          0.450        0.000
  YS02001583           JUNCTION        0.47          0.500        0.000
  YS02001586           JUNCTION        0.57          0.510        0.000
  YS02001590           JUNCTION        0.63          0.750        0.000
  YS02001593           JUNCTION        0.63          0.840        0.000
  YS02001596           JUNCTION        0.72          1.070        0.000
  YS02001600           JUNCTION        0.85          1.190        0.000
  YS02001601           JUNCTION        1.21          1.440        0.000
  YS02001602           JUNCTION        1.08          1.270        0.000
  YS02001605           JUNCTION        1.03          1.180        0.000
  YS02001607           JUNCTION        0.55          0.680        0.000
  YS02001610           JUNCTION        0.58          0.680        0.000
  YS02001613           JUNCTION        0.54          0.700        0.000
  YS02001616           JUNCTION        0.51          0.610        0.000
  YS02001619           JUNCTION        0.49          0.610        0.000
  YS02001622           JUNCTION        0.48          0.620        0.000
  YS02001625           JUNCTION        0.67          0.780        0.000
  YS02001629           JUNCTION        0.38          0.470        0.000
  YS02001633           JUNCTION        0.67          1.060        0.000
  YS02001641           JUNCTION        0.57          0.962        0.138
  YS02001644           JUNCTION        0.50          0.920        0.000
  YS02001647           JUNCTION        0.28          0.705        0.195
  YS02001649           JUNCTION        0.31          0.871        0.179
  YS02001652           JUNCTION        0.22          0.928        0.202
  YS02001655           JUNCTION        0.14          1.094        0.106
  YS02001658           JUNCTION        0.04          0.726        0.574
  YS02001748           JUNCTION        0.01          0.651        0.539
  YS02001751           JUNCTION        0.07          0.679        0.521
  YS02001754           JUNCTION        0.14          0.656        0.494
  YS02001757           JUNCTION        0.30          0.923        0.287
  YS02001759           JUNCTION        0.26          0.871        0.339
  YS02001762           JUNCTION        0.25          0.880        0.270
  YS02001765           JUNCTION        0.23          0.876        0.224
  YS02001767           JUNCTION        0.22          0.878        0.152
  YS02001770           JUNCTION        0.21          0.895        0.025
  YS02001774           JUNCTION        0.25          0.985        0.065
  YS02001779           JUNCTION        0.16          0.680        0.000
  YS02001783           JUNCTION        0.41          0.554        1.046
  YS02001784           JUNCTION        0.39          0.568        0.922
  YS02001786           JUNCTION        0.29          0.210        1.220
  YS02001882           JUNCTION        0.36          0.830        0.000
  YS02001884           JUNCTION        0.37          0.870        0.000
  YS02001887           JUNCTION        0.40          0.950        0.000
  YS02001890           JUNCTION        0.41          0.760        0.000
  YS02001895           JUNCTION        0.35          0.750        0.000
  YS02001898           JUNCTION        0.34          0.740        0.000
  YS02001901           JUNCTION        0.39          0.764        0.106
  YS02001904           JUNCTION        0.38          0.663        0.187
  YS02001907           JUNCTION        0.56          0.950        0.000
  YS02001910           JUNCTION        0.43          1.047        0.053
  YS02001915           JUNCTION        0.36          0.982        0.018
  YS02001918           JUNCTION        0.28          0.810        0.000
  YS02001920           JUNCTION        0.29          1.136        0.004
  YS02001923           JUNCTION        0.02          0.820        0.000
  YS02001926           JUNCTION        0.02          0.900        0.000
  YS02001929           JUNCTION        0.01          0.780        0.000
  YS02006553           JUNCTION        0.57          0.982        0.208
  YS02006556           JUNCTION        0.50          0.914        0.436
  YS02006558           JUNCTION        0.49          0.908        0.492
  YS02006561           JUNCTION        0.25          0.138        1.012
  YS02163301           JUNCTION        0.66          1.030        0.000
  YS02163601           JUNCTION        0.70          1.056        0.024
  YS02164001           JUNCTION        0.58          0.969        0.131
  YSB1154              JUNCTION        0.76          1.285        0.115
  YSB1171              JUNCTION        0.77          1.100        0.000
  YSB1174              JUNCTION        0.68          1.128        0.122
  YSB6556              JUNCTION        0.63          1.100        0.000
  
  
  *********************
  Node Flooding Summary
  *********************
  
  Flooding refers to all water that overflows a node, whether it ponds or not.
  --------------------------------------------------------------------------
                                                             Total   Maximum
                                 Maximum   Time of Max       Flood    Ponded
                        Hours       Rate    Occurrence      Volume     Depth
  Node                 Flooded       LPS   days hr:min    10^6 ltr    Meters
  --------------------------------------------------------------------------
  HS02004478              0.01      0.85      0  01:54       0.000     0.000
  HS02004770              0.32    820.09      0  01:38       0.453     0.000
  HS02004777              0.01     48.49      0  01:35       0.001     0.000
  HS02004785              0.01     49.35      0  01:54       0.000     0.000
  HS02004788              0.01    707.75      0  01:35       0.010     0.000
  HS02004792              0.32   1189.30      0  01:40       0.791     0.000
  HS02004799              0.08    152.62      0  01:38       0.021     0.000
  HS02004802              0.01      5.36      0  01:38       0.000     0.000
  HS02004807              0.01     37.53      0  01:38       0.000     0.000
  HS02004817              0.01     25.26      0  01:36       0.000     0.000
  HS02004824              0.01    176.21      0  01:36       0.000     0.000
  HS02004830              0.01     13.31      0  01:38       0.000     0.000
  HS02004837              0.01     12.32      0  01:38       0.000     0.000
  HS02004842              0.01     22.77      0  01:38       0.000     0.000
  HS02004862              0.01    210.56      0  01:37       0.002     0.000
  HS02004870              0.01    106.06      0  01:38       0.001     0.000
  HS02004876              0.01    273.66      0  01:37       0.001     0.000
  HS02004881              0.01    601.20      0  01:38       0.002     0.000
  HS02004901              0.37    503.44      0  01:42       0.495     0.000
  WS02006109              0.35    253.91      0  01:39       0.179     0.000
  WS02006110              0.01     39.53      0  01:34       0.000     0.000
  WS02006111              0.01    413.74      0  01:34       0.001     0.000
  WS02006112              0.01    143.11      0  01:34       0.001     0.000
  WS02006113              0.01     25.88      0  01:34       0.000     0.000
  WS02006228              0.01     40.82      0  01:35       0.000     0.000
  WS02006229              0.01     27.82      0  01:35       0.000     0.000
  WS02006230              0.60    559.58      0  01:39       0.787     0.000
  WS02006231              0.01     36.88      0  02:56       0.000     0.000
  WS02006232              0.15     15.88      0  01:55       0.000     0.000
  WS02006234              0.66    129.05      0  01:54       0.186     0.000
  WS02006235              0.01     44.80      0  01:54       0.000     0.000
  WS02006238              0.01     18.01      0  01:34       0.000     0.000
  WS02006239              0.01    170.94      0  01:33       0.000     0.000
  WS02006242              0.75    371.83      0  01:33       0.315     0.000
  WS02006243              0.01    314.49      0  01:33       0.001     0.000
  WS02006245              0.01    291.64      0  01:34       0.001     0.000
  WS02006247              0.01    435.53      0  01:34       0.002     0.000
  WS02006248              0.94    507.74      0  01:34       0.920     0.000
  WS02006249              1.01   1379.74      0  01:38       2.841     0.000
  WS02006251              0.01    510.24      0  02:40       0.002     0.000
  WS02006252              0.44   2095.94      0  01:40       1.917     0.000
  WS02006253              0.01    529.68      0  02:45       0.001     0.000
  WS02006256              0.38   1490.57      0  01:35       0.537     0.000
  WS02006280              0.01     10.01      0  01:35       0.000     0.000
  WS02006284              0.01    363.64      0  01:35       0.000     0.000
  YS02001580              0.01    203.28      0  01:36       0.001     0.000
  YS02001583              0.01    175.29      0  01:36       0.001     0.000
  YS02001586              0.35    198.03      0  01:42       0.153     0.000
  YS02001590              0.01     19.78      0  01:35       0.000     0.000
  YS02001593              0.01     73.94      0  01:35       0.000     0.000
  YS02001596              0.01     14.87      0  01:35       0.000     0.000
  YS02001600              0.01     23.88      0  01:35       0.000     0.000
  YS02001601              0.49    855.67      0  01:40       0.814     0.000
  YS02001602              0.32     61.94      0  01:50       0.066     0.000
  YS02001605              0.01     18.19      0  01:36       0.000     0.000
  YS02001607              0.01    138.19      0  01:36       0.000     0.000
  YS02001610              0.30    389.52      0  01:42       0.292     0.000
  YS02001613              0.01     35.09      0  01:36       0.000     0.000
  YS02001616              0.01    173.43      0  01:36       0.001     0.000
  YS02001619              0.01    100.54      0  01:36       0.000     0.000
  YS02001622              0.01      1.06      0  01:55       0.000     0.000
  YS02001625              0.25    967.47      0  01:41       0.402     0.000
  YS02001629              0.06    172.18      0  01:36       0.014     0.000
  YS02001633              0.01      0.41      0  01:54       0.000     0.000
  YS02001644              0.04    232.15      0  01:40       0.019     0.000
  YS02001779              0.02    523.71      0  01:38       0.008     0.000
  YS02001882              0.01     31.51      0  01:37       0.000     0.000
  YS02001884              0.01     60.39      0  01:37       0.000     0.000
  YS02001887              0.01      0.67      0  01:55       0.000     0.000
  YS02001890              0.07    195.04      0  01:37       0.014     0.000
  YS02001895              0.01      0.55      0  01:54       0.000     0.000
  YS02001898              0.01     99.65      0  01:37       0.000     0.000
  YS02001907              0.23   1233.87      0  01:39       0.481     0.000
  YS02001918              0.01    390.91      0  01:37       0.004     0.000
  YS02001923              0.01    111.90      0  01:38       0.000     0.000
  YS02001926              0.01    475.75      0  01:38       0.004     0.000
  YS02001929              0.01    925.79      0  01:38       0.003     0.000
  YS02163301              0.01      0.63      0  01:54       0.000     0.000
  YSB1171                 0.19    580.21      0  01:40       0.227     0.000
  YSB6556                 0.01      8.96      0  01:35       0.000     0.000
  
  
  **********************
  Storage Volume Summary
  **********************
  
  --------------------------------------------------------------------------------------------------
                         Average     Avg  Evap Exfil       Maximum     Max    Time of Max    Maximum
                          Volume    Pcnt  Pcnt  Pcnt        Volume    Pcnt     Occurrence    Outflow
  Storage Unit           1000 m3    Full  Loss  Loss       1000 m3    Full    days hr:min        LPS
  --------------------------------------------------------------------------------------------------
  CC-storage               1.457      23     0     0         2.234      35       0  01:50    7830.00
  JK-storage               0.069      24     0     0         0.213      73       0  01:44   11500.00
  XR-storage               0.943      65     0     0         1.111      77       0  08:00     380.00
  
  
  ***********************
  Outfall Loading Summary
  ***********************
  
  -----------------------------------------------------------
                         Flow       Avg       Max       Total
                         Freq      Flow      Flow      Volume
  Outfall Node           Pcnt       LPS       LPS    10^6 ltr
  -----------------------------------------------------------
  CC-1                   2.66   2507.69   3415.00       1.209
  CC-2                  10.86   3192.69   3415.00       5.876
  JK-1                   2.93   1993.29   5000.00       0.997
  JK-2                   2.27   4636.36   5000.00       1.680
  WSC                   99.94    621.50   1528.07      12.874
  -----------------------------------------------------------
  System                23.73  12951.53   1528.07      22.637
  
  
  ********************
  Link Flow Summary
  ********************
  
  -----------------------------------------------------------------------------
                                 Maximum  Time of Max   Maximum    Max/    Max/
                                  |Flow|   Occurrence   |Veloc|    Full    Full
  Link                 Type          LPS  days hr:min     m/sec    Flow   Depth
  -----------------------------------------------------------------------------
  1                    CONDUIT   1528.07     0  01:45      3.71    0.53    0.52
  HS02004478WS02006287 CONDUIT   2275.15     0  01:39      2.84    0.64    1.00
  HS02004479HS02004480 CONDUIT    563.52     0  01:36      0.81    0.54    1.00
  HS02004480HS02004478 CONDUIT   2210.49     0  01:36      3.16    9.31    1.00
  HS02004770HS02004777 CONDUIT    927.77     0  01:35      1.33    1.70    1.00
  HS02004777HS02004785 CONDUIT    924.67     0  01:35      1.45    1.14    1.00
  HS02004785HS02004788 CONDUIT    902.13     0  01:35      1.35    6.80    1.00
  HS02004788HS02004792 CONDUIT    830.74     0  01:36      1.39    0.55    1.00
  HS02004792HS02004799 CONDUIT   1572.07     0  01:57      2.25    0.96    1.00
  HS02004799HS02004480 CONDUIT   1706.20     0  01:36      2.44    2.16    1.00
  HS02004802HS02004478 CONDUIT    941.99     0  01:40      1.35    0.83    1.00
  HS02004807HS02004802 CONDUIT    941.92     0  01:40      1.35    1.80    1.00
  HS02004817HS02004807 CONDUIT    624.17     0  01:41      0.89    0.37    1.00
  HS02004817HS02004824 CONDUIT    623.74     0  01:41      0.89    0.28    1.00
  HS02004824HS02004830 CONDUIT    819.01     0  01:36      1.17    1.07    1.00
  HS02004830HS02004837 CONDUIT    883.95     0  01:36      1.39    0.88    1.00
  HS02004837HS02004842 CONDUIT   1069.78     0  01:36      1.53    0.64    1.00
  HS02004842HS02004848 CONDUIT   1071.69     0  01:36      1.70    0.62    1.00
  HS02004848HS02004852 CONDUIT   1295.57     0  01:37      1.96    1.46    1.00
  HS02004852HS02004856 CONDUIT   1303.43     0  01:37      1.91    1.49    1.00
  HS02004856HS02004862 CONDUIT   1371.93     0  01:37      1.97    1.37    1.00
  HS02004862HS02004870 CONDUIT   1489.91     0  01:37      2.33    1.61    1.00
  HS02004870HS02004876 CONDUIT   1498.87     0  01:37      2.14    0.99    1.00
  HS02004876HS02004881 CONDUIT   1695.54     0  01:37      2.68   18.03    1.00
  HS02004881HS02006253 CONDUIT   1574.40     0  01:38      2.70    0.31    1.00
  HS02004901HS02004770 CONDUIT    265.76     0  01:52      0.38    1.00    1.00
  WS02001211WS02001212 CONDUIT    306.67     0  01:43      0.54    0.23    0.73
  WS02001212WS02001213 CONDUIT    351.70     0  01:43      1.04    0.54    0.62
  WS02001213WS02003059 CONDUIT    293.47     0  01:42      0.47    0.48    0.93
  WS02003059WS02003060 CONDUIT    374.77     0  01:38      0.66    0.24    0.83
  WS02003060WS02003069 CONDUIT   1531.04     0  01:43      2.21    0.60    0.61
  WS02003066WSF200     CONDUIT   1325.77     0  01:39      3.63    0.22    0.40
  WS02003067WS02003066 CONDUIT   1332.50     0  01:39      2.08    0.43    0.59
  WS02003069WS02003072 CONDUIT   1521.97     0  01:44      1.90    0.73    0.67
  WS02003072WS02003073 CONDUIT   1525.82     0  01:44      2.06    3.30    0.62
  WS02004138WS02004139 CONDUIT    190.77     0  00:29      2.15    0.04    0.44
  WS02004139WS02001211 CONDUIT    343.05     0  01:41      0.54    0.43    0.63
  WS02004401WS02004402 CONDUIT   1334.94     0  01:37      1.70    1.60    1.00
  WS02004402WS02004403 CONDUIT   1333.69     0  01:37      1.70    1.92    1.00
  WS02004403WS02004404 CONDUIT   1331.95     0  01:37      1.70    0.96    1.00
  WS02004404WS02004405 CONDUIT   1333.20     0  01:36      1.70   13.06    1.00
  WS02004405WS02004406 CONDUIT   1334.62     0  01:36      1.70    2.63    1.00
  WS02004406WS02004407 CONDUIT   1334.77     0  01:36      2.09    0.60    0.98
  WS02004407WS02004409 CONDUIT   1305.10     0  01:35      2.22    0.46    0.98
  WS02004409WS02004410 CONDUIT   1304.00     0  01:39      1.72    1.69    1.00
  WS02004410WS02004411 CONDUIT   1304.23     0  01:39      1.67    1.78    1.00
  WS02004411WS02004412 CONDUIT   1304.50     0  01:39      1.66    1.85    1.00
  WS02004412WS02004413 CONDUIT   1304.53     0  01:39      1.66    0.87    1.00
  WS02004413WS02003067 CONDUIT   1304.55     0  01:39      2.02    0.56    0.77
  WS02006109WS02006110 CONDUIT   1192.94     0  01:34      2.37    2.29    1.00
  WS02006110WS02006113 CONDUIT   1191.29     0  01:34      2.37    1.08    1.00
  WS02006111WS02006112 CONDUIT   1135.64     0  01:55      2.26    0.54    1.00
  WS02006112WS02006115 CONDUIT   1334.44     0  01:37      1.70    0.79    1.00
  WS02006113WS02006111 CONDUIT   1170.13     0  01:34      2.70    1.40    1.00
  WS02006115WS02006116 CONDUIT   1334.64     0  01:37      1.70    1.71    1.00
  WS02006116WS02004401 CONDUIT   1334.21     0  01:37      1.70    1.84    1.00
  WS02006228WS02006109 CONDUIT   1273.36     0  01:40      2.53    5.56    1.00
  WS02006229WS02006228 CONDUIT   1273.71     0  01:40      2.53    4.22    1.00
  WS02006230WS02006229 CONDUIT   1001.96     0  01:39      2.60   22.30    1.00
  WS02006231WS02006230 CONDUIT    460.81     0  01:54      1.34    6.99    1.00
  WS02006232WS02006231 CONDUIT    456.55     0  01:54      1.19    0.96    1.00
  WS02006234WS02006232 CONDUIT    453.22     0  01:54      1.41    0.92    1.00
  WS02006235WS02006234 CONDUIT    446.61     0  00:06      1.39    4.71    1.00
  WS02006238WS02006235 CONDUIT    454.50     0  01:54      1.45    1.01    1.00
  WS02006239WS02006238 CONDUIT    461.65     0  00:06      1.26    1.48    1.00
  WS02006240WS02006239 CONDUIT    488.54     0  00:06      1.35    1.54    1.00
  WS02006242WS02006240 CONDUIT    568.63     0  00:06      1.58    2.26    1.00
  WS02006243WS02006242 CONDUIT    620.39     0  00:05      1.62    1.33    1.00
  WS02006245WS02006243 CONDUIT    663.71     0  00:05      1.76    1.96    1.00
  WS02006247WS02006245 CONDUIT    668.41     0  00:05      1.74    5.30    1.00
  WS02006248WS02006247 CONDUIT    668.71     0  00:05      1.74    1.46    1.00
  WS02006249WS02006248 CONDUIT    669.97     0  00:05      1.75    3.67    1.00
  WS02006251WS02006249 CONDUIT   1340.55     0  01:38      3.48    3.87    1.00
  WS02006252WS02006251 CONDUIT   1145.69     0  01:30    >50.00    4.21    1.00
  WS02006253WS02006251 CONDUIT   1610.67     0  01:38      4.19    4.83    1.00
  WS02006256WS02006235 CONDUIT    288.93     0  00:00      4.23    3.06    1.00
  WS02006280WS02006229 CONDUIT   2275.67     0  01:39      4.81    0.49    1.00
  WS02006284WS02006280 CONDUIT   2274.70     0  01:39      3.16    0.95    1.00
  WS02006287WS02006284 CONDUIT   2274.50     0  01:39      2.95    1.05    1.00
  WSF200WS02003060     CONDUIT   1457.28     0  01:37      3.02    0.32    0.51
  YS02001580YS02001583 CONDUIT    273.91     0  01:36      1.12    1.06    1.00
  YS02001583YS02001586 CONDUIT    247.53     0  01:36      1.11    0.37    1.00
  YS02001586YS02001590 CONDUIT    331.64     0  01:54      1.32    0.58    1.00
  YS02001590YS02001593 CONDUIT    322.09     0  01:54      1.14    2.02    1.00
  YS02001593YS02001596 CONDUIT    318.18     0  01:54      1.75    0.50    1.00
  YS02001596YS02001600 CONDUIT    318.63     0  01:54      1.20    0.62    1.00
  YS02001600YS02001601 CONDUIT    318.85     0  01:54      1.13    0.55    1.00
  YS02001601YS02001602 CONDUIT    589.85     0  01:36      2.09    2.13    1.00
  YS02001602YS02001605 CONDUIT    589.47     0  01:36      2.08   12.47    1.00
  YS02001605YS02001607 CONDUIT    589.52     0  01:36      2.08    3.23    1.00
  YS02001607YS02001610 CONDUIT    563.52     0  01:36      0.76    0.54    1.00
  YS02001610YS02001613 CONDUIT    533.85     0  01:36      0.71    0.62    1.00
  YS02001613YS02001616 CONDUIT    513.28     0  02:05      0.69    0.44    1.00
  YS02001616YS02001619 CONDUIT    514.21     0  02:05      0.67    0.89    1.00
  YS02001619YS02001622 CONDUIT    954.21     0  01:55      1.37    1.41    1.00
  YS02001622YS02001625 CONDUIT    957.57     0  01:55      1.22    0.51    1.00
  YS02001625YS02001629 CONDUIT    958.34     0  01:55      1.22    0.46    1.00
  YS02001629YS02163301 CONDUIT    950.15     0  01:55      1.21    1.17    1.00
  YS02001633YS02163601 CONDUIT   1373.16     0  01:37      1.75    1.44    1.00
  YS02001641YS02001644 CONDUIT   1372.04     0  01:37      1.75    4.44    1.00
  YS02001644YS02001647 CONDUIT   1909.36     0  01:37      2.43    1.12    1.00
  YS02001647YS02001649 CONDUIT   1916.63     0  01:37      2.44    1.01    1.00
  YS02001649YS02001757 CONDUIT   2251.55     0  01:38      2.87    1.37    1.00
  YS02001652YS02001649 CONDUIT    750.37     0  01:40      0.96    0.37    1.00
  YS02001655YS02001652 CONDUIT    748.11     0  01:40      1.66    0.36    1.00
  YS02001658YS02001655 CONDUIT    843.01     0  01:38      2.13    0.36    1.00
  YS02001661YS02001658 CONDUIT    743.92     0  01:40      2.49    0.29    0.99
  YS02001664YS02001661 CONDUIT    815.96     0  01:40      2.48    0.26    0.72
  YS02001745YS02001748 CONDUIT    641.16     0  01:39      2.38    0.25    0.88
  YS02001748YS02001751 CONDUIT    489.85     0  01:40      1.95    0.25    1.00
  YS02001751YS02001754 CONDUIT    491.23     0  01:40      1.67    0.24    1.00
  YS02001754YS02001757 CONDUIT    492.09     0  01:40      0.65    0.20    1.00
  YS02001757CaochengTiaoxuchi CONDUIT   3467.15     0  01:40      5.03    1.50    0.90
  YS02001759YS02001757 CONDUIT   1379.49     0  01:38      1.76    0.98    1.00
  YS02001762YS02001759 CONDUIT    812.86     0  01:38      1.03    0.94    1.00
  YS02001765YS02001762 CONDUIT    808.43     0  01:38      1.03    0.76    1.00
  YS02001767YS02001765 CONDUIT    803.43     0  01:38      1.02    1.01    1.00
  YS02001770YS02001767 CONDUIT    798.64     0  01:38      1.02    3.16    1.00
  YS02001774YS02001770 CONDUIT    559.62     0  01:38      0.71    0.36    1.00
  YS02001779YS02001774 CONDUIT    573.53     0  01:38      0.73    0.29    1.00
  YS02001783YS02001784 CONDUIT   1155.33     0  01:38      2.30    1.59    1.00
  YS02001784YS02001785 CONDUIT   1155.88     0  01:38      2.30    2.69    1.00
  YS02001786YS02001788 CONDUIT   1155.77     0  01:38      2.47    2.23    0.89
  YS02001788YS02001790 CONDUIT   1170.69     0  01:38      2.73    0.86    0.84
  YS02001790YS02001791 CONDUIT   1283.08     0  01:41      3.42    1.40    0.70
  YS02001791YS02001793 CONDUIT   1253.72     0  01:39      6.76    0.54    0.45
  YS02001793JiankangQianchi CONDUIT   1349.93     0  01:40      2.69    0.11    0.66
  YS02001882YS02001884 CONDUIT    120.24     0  01:36      0.15    0.14    1.00
  YS02001884YS02001887 CONDUIT    138.41     0  01:36      0.18    0.18    1.00
  YS02001887YS02001890 CONDUIT    634.42     0  01:37      0.81    1.09    1.00
  YS02001890YS02001895 CONDUIT    627.31     0  01:37      0.80    0.29    1.00
  YS02001895YS02001898 CONDUIT    630.75     0  01:37      0.80    1.09    1.00
  YS02001898YS02001901 CONDUIT    635.43     0  01:37      0.81    0.41    1.00
  YS02001901YS02001904 CONDUIT    637.41     0  01:37      0.81    0.99    1.00
  YS02001904YS02001907 CONDUIT    640.70     0  01:37      0.82    0.22    1.00
  YS02001907YS02006553 CONDUIT    838.02     0  01:54      0.93    0.99    1.00
  YS02001910YS02001907 CONDUIT   1089.99     0  01:39      1.39    0.61    1.00
  YS02001915YS02001910 CONDUIT   1089.24     0  01:39      1.39    0.54    1.00
  YS02001918YS02001915 CONDUIT    807.03     0  01:37      1.04    0.45    1.00
  YS02001920YS02001918 CONDUIT    735.31     0  01:37      0.94    0.71    1.00
  YS02001923YS02001920 CONDUIT    752.83     0  01:37      1.00    0.34    1.00
  YS02001926YS02001923 CONDUIT    992.47     0  01:38      1.43    1.42    1.00
  YS02001929YS02001926 CONDUIT    887.41     0  01:38      1.25    0.42    1.00
  YS02006553YS02006556 CONDUIT    805.65     0  01:55      1.03    0.69    1.00
  YS02006556YS02006558 CONDUIT    814.98     0  01:55      1.04    0.64    1.00
  YS02006558YS02006561 CONDUIT   1202.29     0  01:37      4.25    2.66    1.00
  YS02006561YS02001783 CONDUIT   1155.00     0  01:38      2.30    0.60    1.00
  YS02163301YS02001633 CONDUIT    946.20     0  01:57      1.20    0.89    1.00
  YS02163601YS02164001 CONDUIT   1374.04     0  01:37      1.75    1.22    1.00
  YS02164001YS02001641 CONDUIT   1371.95     0  01:37      1.75    1.87    1.00
  YSB1154YSB6556       CONDUIT    332.57     0  01:39      0.86    0.60    1.00
  YSB1171HS02004479    CONDUIT    564.10     0  01:36      1.12    0.38    1.00
  YSB1174YSB1171       CONDUIT    292.07     0  01:38      0.76    0.45    1.00
  YSB6556YSB1171       CONDUIT    333.72     0  01:39      0.87    0.34    1.00
  CC-R1                PUMP      3415.00     0  00:05              5.00
  CC-R2                PUMP      3415.00     0  00:05              5.00
  CC-S1                PUMP      1000.00     0  01:25              5.00
  CC-S2                PUMP      1000.00     0  00:05              5.00
  JK-R1                PUMP      5000.00     0  01:35              5.00
  JK-R2                PUMP      5000.00     0  01:35              5.00
  JK-S                 PUMP      1500.00     0  00:20              5.00
  XR-1                 PUMP        95.00     0  00:00              1.00
  XR-2                 PUMP        95.00     0  00:00              1.00
  XR-3                 PUMP        95.00     0  00:00              1.00
  XR-4                 PUMP        95.00     0  00:00              1.00
  
  
  ***************************
  Flow Classification Summary
  ***************************
  
  -------------------------------------------------------------------------------------
                      Adjusted    ---------- Fraction of Time in Flow Class ---------- 
                       /Actual         Up    Down  Sub   Sup   Up    Down  Norm  Inlet 
  Conduit               Length    Dry  Dry   Dry   Crit  Crit  Crit  Crit  Ltd   Ctrl  
  -------------------------------------------------------------------------------------
  1                       1.00   0.00  0.00  0.00  0.00  1.00  0.00  0.00  0.36  0.00
  HS02004478WS02006287    1.00   0.11  0.00  0.00  0.58  0.31  0.00  0.00  0.61  0.00
  HS02004479HS02004480    1.00   0.04  0.00  0.00  0.96  0.00  0.00  0.00  0.11  0.00
  HS02004480HS02004478    1.00   0.09  0.00  0.00  0.53  0.00  0.00  0.38  0.00  0.00
  HS02004770HS02004777    1.00   0.00  0.09  0.00  0.91  0.00  0.00  0.00  0.03  0.00
  HS02004777HS02004785    1.00   0.00  0.00  0.00  1.00  0.00  0.00  0.00  0.12  0.00
  HS02004785HS02004788    1.00   0.00  0.00  0.00  1.00  0.00  0.00  0.00  0.00  0.00
  HS02004788HS02004792    1.00   0.00  0.00  0.00  0.99  0.01  0.00  0.00  0.91  0.00
  HS02004792HS02004799    1.00   0.00  0.00  0.00  0.99  0.01  0.00  0.00  0.87  0.00
  HS02004799HS02004480    1.00   0.00  0.04  0.00  0.89  0.00  0.06  0.00  0.00  0.00
  HS02004802HS02004478    1.00   0.09  0.00  0.00  0.90  0.00  0.00  0.00  0.02  0.00
  HS02004807HS02004802    1.00   0.09  0.00  0.00  0.90  0.00  0.00  0.01  0.00  0.00
  HS02004817HS02004807    1.00   0.00  0.09  0.00  0.91  0.00  0.00  0.00  0.01  0.00
  HS02004817HS02004824    1.00   0.00  0.00  0.00  1.00  0.00  0.00  0.00  0.83  0.00
  HS02004824HS02004830    1.00   0.00  0.00  0.00  1.00  0.00  0.00  0.00  0.00  0.00
  HS02004830HS02004837    1.00   0.00  0.00  0.00  1.00  0.00  0.00  0.00  0.89  0.00
  HS02004837HS02004842    1.00   0.00  0.00  0.00  0.99  0.01  0.00  0.00  0.11  0.00
  HS02004842HS02004848    1.00   0.00  0.09  0.00  0.91  0.00  0.00  0.00  0.59  0.00
  HS02004848HS02004852    1.00   0.09  0.00  0.00  0.91  0.00  0.00  0.00  0.72  0.00
  HS02004852HS02004856    1.00   0.09  0.01  0.00  0.90  0.00  0.00  0.00  0.70  0.00
  HS02004856HS02004862    1.00   0.00  0.11  0.00  0.89  0.00  0.00  0.00  0.75  0.00
  HS02004862HS02004870    1.00   0.00  0.00  0.00  1.00  0.00  0.00  0.00  0.03  0.00
  HS02004870HS02004876    1.00   0.01  0.00  0.00  0.99  0.00  0.00  0.00  0.91  0.00
  HS02004876HS02004881    1.00   0.01  0.00  0.00  0.76  0.23  0.00  0.00  0.00  0.00
  HS02004881HS02006253    1.00   0.00  0.01  0.00  0.35  0.06  0.00  0.58  0.13  0.00
  HS02004901HS02004770    1.00   0.09  0.00  0.00  0.91  0.00  0.00  0.00  0.00  0.00
  WS02001211WS02001212    1.00   0.00  0.03  0.00  0.97  0.00  0.00  0.00  0.00  0.00
  WS02001212WS02001213    1.00   0.03  0.00  0.00  0.44  0.00  0.53  0.00  0.00  0.00
  WS02001213WS02003059    1.00   0.00  0.00  0.00  0.99  0.00  0.00  0.00  0.00  0.00
  WS02003059WS02003060    1.00   0.00  0.00  0.00  1.00  0.00  0.00  0.00  0.03  0.00
  WS02003060WS02003069    1.00   0.00  0.00  0.00  0.98  0.02  0.00  0.00  0.58  0.00
  WS02003066WSF200        1.00   0.06  0.00  0.00  0.00  0.94  0.00  0.00  0.71  0.00
  WS02003067WS02003066    1.00   0.06  0.00  0.00  0.94  0.00  0.00  0.00  0.00  0.00
  WS02003069WS02003072    1.00   0.00  0.00  0.00  1.00  0.00  0.00  0.00  0.72  0.00
  WS02003072WS02003073    1.00   0.00  0.00  0.00  0.00  0.00  0.00  1.00  0.00  0.00
  WS02004138WS02004139    1.00   0.00  0.01  0.00  0.97  0.01  0.00  0.02  0.98  0.00
  WS02004139WS02001211    1.00   0.00  0.00  0.00  0.99  0.00  0.00  0.00  0.00  0.00
  WS02004401WS02004402    1.00   0.03  0.00  0.00  0.97  0.00  0.00  0.00  0.00  0.00
  WS02004402WS02004403    1.00   0.03  0.00  0.00  0.97  0.00  0.00  0.00  0.00  0.00
  WS02004403WS02004404    1.00   0.00  0.03  0.00  0.97  0.00  0.00  0.00  0.00  0.00
  WS02004404WS02004405    1.00   0.00  0.00  0.00  1.00  0.00  0.00  0.00  0.00  0.00
[...]
  WS02006284WS02006280    1.00   0.10  0.00  0.00  0.16  0.01  0.00  0.73  0.00  0.00
  WS02006287WS02006284    1.00   0.08  0.03  0.00  0.49  0.40  0.00  0.01  0.66  0.00
  WSF200WS02003060        1.00   0.00  0.06  0.00  0.53  0.41  0.00  0.00  0.68  0.00
  YS02001580YS02001583    1.00   0.16  0.52  0.00  0.32  0.00  0.00  0.00  0.72  0.00
  YS02001583YS02001586    1.00   0.33  0.25  0.00  0.42  0.00  0.00  0.00  0.72  0.00
  YS02001586YS02001590    1.00   0.09  0.00  0.00  0.58  0.03  0.00  0.31  0.32  0.00
  YS02001590YS02001593    1.00   0.09  0.00  0.00  0.17  0.00  0.74  0.00  0.00  0.00
  YS02001593YS02001596    1.00   0.09  0.00  0.00  0.19  0.02  0.00  0.70  0.02  0.00
  YS02001596YS02001600    1.00   0.09  0.00  0.00  0.33  0.04  0.00  0.54  0.06  0.00
  YS02001600YS02001601    1.00   0.09  0.00  0.00  0.90  0.00  0.00  0.00  0.63  0.00
  YS02001601YS02001602    1.00   0.09  0.00  0.00  0.91  0.00  0.00  0.00  0.00  0.00
  YS02001602YS02001605    1.00   0.09  0.00  0.00  0.91  0.00  0.00  0.00  0.00  0.00
  YS02001605YS02001607    1.00   0.10  0.00  0.00  0.90  0.00  0.00  0.00  0.00  0.00
  YS02001607YS02001610    1.00   0.09  0.00  0.00  0.90  0.00  0.00  0.00  0.02  0.00
  YS02001610YS02001613    1.00   0.09  0.00  0.00  0.91  0.00  0.00  0.00  0.01  0.00
  YS02001613YS02001616    1.00   0.09  0.00  0.00  0.91  0.00  0.00  0.00  0.00  0.00
  YS02001616YS02001619    1.00   0.09  0.00  0.00  0.91  0.00  0.00  0.00  0.00  0.00
  YS02001619YS02001622    1.00   0.09  0.00  0.00  0.91  0.00  0.00  0.00  0.36  0.00
  YS02001622YS02001625    1.00   0.09  0.00  0.00  0.91  0.00  0.00  0.00  0.04  0.00
  YS02001625YS02001629    1.00   0.09  0.03  0.00  0.23  0.00  0.65  0.00  0.00  0.00
  YS02001629YS02163301    1.00   0.10  0.00  0.00  0.89  0.00  0.00  0.00  0.00  0.00
  YS02001633YS02163601    1.00   0.00  0.01  0.00  0.99  0.00  0.00  0.00  0.15  0.00
  YS02001641YS02001644    1.00   0.00  0.01  0.00  0.99  0.00  0.00  0.00  0.00  0.00
  YS02001644YS02001647    1.00   0.00  0.11  0.00  0.89  0.00  0.00  0.00  0.00  0.00
  YS02001647YS02001649    1.00   0.00  0.11  0.00  0.47  0.42  0.00  0.00  0.60  0.00
  YS02001649YS02001757    1.00   0.00  0.00  0.00  0.52  0.48  0.00  0.00  0.64  0.00
  YS02001652YS02001649    1.00   0.00  0.00  0.00  0.97  0.03  0.00  0.00  0.76  0.00
  YS02001655YS02001652    1.00   0.00  0.00  0.00  0.26  0.04  0.00  0.70  0.09  0.00
  YS02001658YS02001655    1.00   0.00  0.10  0.00  0.49  0.42  0.00  0.00  0.76  0.00
  YS02001661YS02001658    1.00   0.10  0.00  0.00  0.35  0.55  0.00  0.00  0.77  0.00
  YS02001664YS02001661    1.00   0.09  0.00  0.00  0.69  0.22  0.00  0.00  0.86  0.00
  YS02001745YS02001748    1.00   0.00  0.00  0.00  0.04  0.01  0.00  0.95  0.02  0.00
  YS02001748YS02001751    1.00   0.00  0.00  0.00  0.60  0.40  0.00  0.00  0.84  0.00
  YS02001751YS02001754    1.00   0.00  0.00  0.00  0.16  0.02  0.00  0.82  0.04  0.00
  YS02001754YS02001757    1.00   0.00  0.00  0.00  1.00  0.00  0.00  0.00  0.89  0.00
  YS02001757CaochengTiaoxuchi    1.00   0.00  0.00  0.00  0.72  0.28  0.00  0.00  0.94  0.00
  YS02001759YS02001757    1.00   0.00  0.00  0.00  1.00  0.00  0.00  0.00  0.64  0.00
  YS02001762YS02001759    1.00   0.00  0.00  0.00  1.00  0.00  0.00  0.00  0.03  0.00
  YS02001765YS02001762    1.00   0.00  0.00  0.00  1.00  0.00  0.00  0.00  0.76  0.00
  YS02001767YS02001765    1.00   0.00  0.00  0.00  1.00  0.00  0.00  0.00  0.00  0.00
  YS02001770YS02001767    1.00   0.00  0.00  0.00  1.00  0.00  0.00  0.00  0.00  0.00
  YS02001774YS02001770    1.00   0.00  0.09  0.00  0.73  0.00  0.17  0.00  0.03  0.00
  YS02001779YS02001774    1.00   0.00  0.00  0.00  1.00  0.00  0.00  0.00  0.81  0.00
  YS02001783YS02001784    1.00   0.00  0.12  0.00  0.88  0.00  0.00  0.00  0.58  0.00
  YS02001784YS02001785    1.00   0.00  0.00  0.00  1.00  0.00  0.00  0.00  0.16  0.00
  YS02001786YS02001788    1.00   0.00  0.00  0.00  0.62  0.38  0.00  0.00  0.00  0.00
  YS02001788YS02001790    1.00   0.00  0.00  0.00  0.16  0.84  0.00  0.00  0.85  0.00
  YS02001790YS02001791    1.00   0.00  0.00  0.00  0.02  0.98  0.00  0.00  0.16  0.00
  YS02001791YS02001793    1.00   0.00  0.00  0.00  0.00  1.00  0.00  0.00  0.01  0.00
  YS02001793JiankangQianchi    1.00   0.00  0.00  0.00  0.97  0.03  0.00  0.00  0.98  0.00
  YS02001882YS02001884    1.00   0.10  0.00  0.00  0.89  0.00  0.00  0.00  0.00  0.00
  YS02001884YS02001887    1.00   0.06  0.03  0.00  0.92  0.00  0.00  0.00  0.00  0.00
  YS02001887YS02001890    1.00   0.00  0.00  0.00  0.96  0.00  0.03  0.00  0.00  0.00
  YS02001890YS02001895    1.00   0.00  0.10  0.00  0.89  0.00  0.00  0.00  0.00  0.00
  YS02001895YS02001898    1.00   0.11  0.00  0.00  0.88  0.00  0.01  0.00  0.00  0.00
  YS02001898YS02001901    1.00   0.11  0.00  0.00  0.89  0.00  0.00  0.00  0.01  0.00
  YS02001901YS02001904    1.00   0.11  0.00  0.00  0.89  0.00  0.00  0.00  0.00  0.00
  YS02001904YS02001907    1.00   0.00  0.11  0.00  0.89  0.00  0.00  0.00  0.00  0.00
  YS02001907YS02006553    1.00   0.00  0.03  0.00  0.97  0.00  0.00  0.00  0.00  0.00
  YS02001910YS02001907    1.00   0.00  0.00  0.00  0.96  0.00  0.00  0.03  0.12  0.00
  YS02001915YS02001910    1.00   0.00  0.00  0.00  0.97  0.03  0.00  0.00  0.16  0.00
  YS02001918YS02001915    1.00   0.00  0.00  0.00  0.97  0.02  0.00  0.00  0.78  0.00
  YS02001920YS02001918    1.00   0.00  0.01  0.00  0.99  0.00  0.00  0.00  0.00  0.00
  YS02001923YS02001920    1.00   0.00  0.00  0.00  1.00  0.00  0.00  0.00  0.94  0.00
  YS02001926YS02001923    1.00   0.00  0.06  0.00  0.07  0.00  0.86  0.00  0.00  0.00
  YS02001929YS02001926    1.00   0.00  0.09  0.00  0.91  0.00  0.00  0.00  0.83  0.00
  YS02006553YS02006556    1.00   0.01  0.00  0.00  0.99  0.00  0.00  0.00  0.03  0.00
  YS02006556YS02006558    1.00   0.00  0.00  0.00  1.00  0.00  0.00  0.00  0.00  0.00
  YS02006558YS02006561    1.00   0.12  0.00  0.00  0.07  0.82  0.00  0.00  0.18  0.00
  YS02006561YS02001783    1.00   0.12  0.00  0.00  0.11  0.77  0.00  0.00  0.72  0.00
  YS02163301YS02001633    1.00   0.00  0.10  0.00  0.90  0.00  0.00  0.00  0.00  0.00
  YS02163601YS02164001    1.00   0.00  0.07  0.00  0.93  0.00  0.00  0.00  0.00  0.00
  YS02164001YS02001641    1.00   0.01  0.06  0.00  0.93  0.00  0.00  0.00  0.06  0.00
  YSB1154YSB6556          1.00   0.09  0.00  0.00  0.91  0.00  0.00  0.00  0.02  0.00
  YSB1171HS02004479       1.00   0.04  0.00  0.00  0.95  0.00  0.00  0.01  0.10  0.00
  YSB1174YSB1171          1.00   0.05  0.02  0.00  0.93  0.00  0.00  0.00  0.00  0.00
  YSB6556YSB1171          1.00   0.04  0.04  0.00  0.91  0.00  0.00  0.00  0.00  0.00
  
  
  *************************
  Conduit Surcharge Summary
  *************************
  
  ----------------------------------------------------------------------------
                                                           Hours        Hours 
                         --------- Hours Full --------   Above Full   Capacity
  Conduit                Both Ends  Upstream  Dnstream   Normal Flow   Limited
  ----------------------------------------------------------------------------
  HS02004478WS02006287        0.40      0.40      0.57      0.01         0.01
  HS02004479HS02004480        0.59      0.59      0.60      0.01         0.01
  HS02004480HS02004478        0.51      0.58      0.51      1.63         0.51
  HS02004770HS02004777        0.50      0.50      0.51      0.11         0.08
  HS02004777HS02004785        0.45      0.45      0.51      0.01         0.01
  HS02004785HS02004788        0.43      0.45      0.43      1.28         0.41
  HS02004788HS02004792        0.44      0.44      0.56      0.01         0.01
  HS02004792HS02004799        0.56      0.56      0.65      0.01         0.01
  HS02004799HS02004480        0.58      0.58      0.65      0.75         0.01
  HS02004802HS02004478        0.52      0.52      0.59      0.01         0.01
  HS02004807HS02004802        0.55      0.55      0.58      0.16         0.16
  HS02004817HS02004807        0.55      0.55      1.07      0.01         0.01
  HS02004817HS02004824        0.43      0.43      1.07      0.01         0.01
  HS02004824HS02004830        0.39      0.39      0.43      0.01         0.01
  HS02004830HS02004837        0.34      0.34      0.39      0.01         0.01
  HS02004837HS02004842        0.34      0.34      0.49      0.01         0.01
  HS02004842HS02004848        0.32      0.32      0.49      0.01         0.01
  HS02004848HS02004852        0.31      0.32      0.33      0.02         0.01
  HS02004852HS02004856        0.33      0.33      0.36      0.02         0.01
  HS02004856HS02004862        0.30      0.31      0.36      0.01         0.01
  HS02004862HS02004870        0.35      0.36      0.38      0.04         0.08
  HS02004870HS02004876        0.38      0.38      0.44      0.01         0.01
  HS02004876HS02004881        0.42      0.44      0.42      1.27         0.42
  HS02004881HS02006253        0.42      0.42      0.90      0.01         0.01
  HS02004901HS02004770        0.50      0.50      0.51      0.01         0.01
  WS02003072WS02003073        0.01      0.01      0.01      1.99         0.01
  WS02004401WS02004402        1.38      1.38      1.42      1.15         1.11
  WS02004402WS02004403        1.42      1.42      1.43      1.37         1.36
  WS02004403WS02004404        1.43      1.43      1.54      0.01         0.02
  WS02004404WS02004405        1.53      1.54      1.53      2.52         1.52
  WS02004405WS02004406        1.51      1.53      1.51      1.64         1.51
  WS02004406WS02004407        0.01      0.01      1.51      0.01         0.01
  WS02004407WS02004409        0.01      0.01      0.79      0.01         0.01
  WS02004409WS02004410        0.75      0.79      0.75      1.24         0.75
  WS02004410WS02004411        0.71      0.75      0.71      1.33         0.71
  WS02004411WS02004412        0.65      0.71      0.65      1.35         0.65
  WS02004412WS02004413        0.65      0.65      1.07      0.01         0.01
  WS02004413WS02003067        0.01      0.01      1.07      0.01         0.01
  WS02006109WS02006110        1.61      1.61      1.78      1.62         0.01
  WS02006110WS02006113        1.04      1.04      1.78      0.25         0.01
  WS02006111WS02006112        1.03      1.03      1.90      0.01         0.01
  WS02006112WS02006115        1.24      1.24      1.65      0.01         0.01
  WS02006113WS02006111        1.04      1.04      1.04      1.13         1.03
  WS02006115WS02006116        1.26      1.26      1.26      1.25         1.21
  WS02006116WS02004401        1.37      1.37      1.38      1.35         1.30
  WS02006228WS02006109        1.76      1.78      1.76      2.05         1.76
  WS02006229WS02006228        1.76      1.77      1.76      1.91         1.76
  WS02006230WS02006229        1.80      1.80      1.80      2.75         0.86
  WS02006231WS02006230        1.49      1.49      1.51      2.21         0.87
  WS02006232WS02006231        1.50      1.50      1.62      0.01         0.14
  WS02006234WS02006232        1.51      1.51      1.62      0.01         0.01
  WS02006235WS02006234        1.47      1.48      1.49      1.91         0.84
  WS02006238WS02006235        1.52      1.52      1.55      0.01         0.27
  WS02006239WS02006238        1.49      1.49      1.53      0.72         0.05
  WS02006240WS02006239        1.41      1.42      1.44      0.72         0.04
  WS02006242WS02006240        1.41      1.41      1.49      0.86         0.74
  WS02006243WS02006242        1.33      1.33      1.44      0.01         0.01
  WS02006245WS02006243        1.27      1.27      1.31      0.07         0.04
  WS02006247WS02006245        1.25      1.28      1.26      1.63         0.28
  WS02006248WS02006247        1.21      1.21      1.26      0.02         0.02
  WS02006249WS02006248        1.19      1.20      1.21      0.39         0.02
  WS02006251WS02006249        1.19      1.23      1.21      0.91         0.75
  WS02006252WS02006251        0.98      1.66      1.14      0.41         0.01
  WS02006253WS02006251        1.18      1.22      1.22      0.75         0.11
  WS02006256WS02006235        2.09      2.12      5.36      0.06         0.01
  WS02006280WS02006229        0.67      0.67      0.74      0.01         0.01
  WS02006284WS02006280        0.59      0.59      0.66      0.01         0.01
  WS02006287WS02006284        0.51      0.51      0.60      0.19         0.20
  YS02001580YS02001583        0.46      0.47      0.49      0.01         0.01
  YS02001583YS02001586        0.47      0.47      0.57      0.01         0.01
  YS02001586YS02001590        0.57      0.57      0.63      0.01         0.01
  YS02001590YS02001593        0.63      0.63      0.65      0.70         0.01
  YS02001593YS02001596        0.64      0.64      0.72      0.01         0.01
  YS02001596YS02001600        0.75      0.75      0.85      0.01         0.01
  YS02001600YS02001601        0.90      0.90      1.21      0.01         0.01
  YS02001601YS02001602        1.08      1.08      1.27      0.87         0.01
  YS02001602YS02001605        1.03      1.03      1.08      1.99         0.01
  YS02001605YS02001607        0.98      1.03      0.98      1.16         0.98
  YS02001607YS02001610        0.55      0.55      0.58      0.01         0.01
  YS02001610YS02001613        0.54      0.54      0.58      0.01         0.01
  YS02001613YS02001616        0.51      0.51      0.54      0.01         0.01
  YS02001616YS02001619        0.49      0.49      0.51      0.01         0.01
  YS02001619YS02001622        0.48      0.49      0.48      0.68         0.47
  YS02001622YS02001625        0.48      0.48      0.67      0.01         0.01
  YS02001625YS02001629        0.38      0.38      0.67      0.01         0.01
  YS02001629YS02163301        0.65      0.65      0.66      0.30         0.31
  YS02001633YS02163601        0.67      0.67      0.70      0.46         0.46
  YS02001641YS02001644        0.50      0.56      0.50      1.33         0.50
  YS02001644YS02001647        0.28      0.28      0.50      0.03         0.01
  YS02001647YS02001649        0.28      0.28      0.31      0.01         0.01
  YS02001649YS02001757        0.30      0.31      0.30      0.40         0.29
  YS02001652YS02001649        0.24      0.24      0.31      0.01         0.01
  YS02001655YS02001652        0.14      0.14      0.22      0.01         0.01
  YS02001658YS02001655        0.04      0.04      0.14      0.01         0.01
  YS02001661YS02001658        0.01      0.01      0.04      0.01         0.01
  YS02001664YS02001661        0.01      0.01      0.01      0.01         0.01
  YS02001745YS02001748        0.01      0.01      0.01      0.01         0.01
  YS02001748YS02001751        0.02      0.02      0.07      0.01         0.01
  YS02001751YS02001754        0.07      0.07      0.14      0.01         0.01
  YS02001754YS02001757        0.16      0.16      0.30      0.01         0.01
  YS02001757CaochengTiaoxuchi        0.01      0.30      0.01      0.39         0.01
  YS02001759YS02001757        0.26      0.26      0.30      0.01         0.02
  YS02001762YS02001759        0.25      0.25      0.26      0.01         0.02
  YS02001765YS02001762        0.23      0.23      0.25      0.01         0.01
  YS02001767YS02001765        0.22      0.22      0.23      0.01         0.02
  YS02001770YS02001767        0.22      0.22      0.22      0.44         0.22
  YS02001774YS02001770        0.21      0.21      0.25      0.01         0.01
  YS02001779YS02001774        0.16      0.16      0.25      0.01         0.01
  YS02001783YS02001784        0.39      0.41      0.39      0.52         0.39
  YS02001784YS02001785        0.29      0.39      0.29      0.70         0.29
  YS02001786YS02001788        0.01      0.29      0.01      0.59         0.01
  YS02001790YS02001791        0.01      0.01      0.01      0.37         0.01
  YS02001793JiankangQianchi        0.01      0.01      4.57      0.01         0.01
  YS02001882YS02001884        0.36      0.36      0.37      0.01         0.01
  YS02001884YS02001887        0.39      0.39      0.40      0.01         0.01
  YS02001887YS02001890        0.41      0.41      0.42      0.04         0.01
  YS02001890YS02001895        0.35      0.35      0.43      0.01         0.01
  YS02001895YS02001898        0.34      0.34      0.35      0.01         0.01
  YS02001898YS02001901        0.35      0.35      0.39      0.01         0.01
  YS02001901YS02001904        0.38      0.38      0.39      0.01         0.01
  YS02001904YS02001907        0.38      0.38      0.57      0.01         0.01
  YS02001907YS02006553        0.70      0.70      0.76      0.01         0.01
  YS02001910YS02001907        0.43      0.43      0.56      0.01         0.01
  YS02001915YS02001910        0.36      0.36      0.43      0.01         0.01
  YS02001918YS02001915        0.28      0.28      0.36      0.01         0.01
  YS02001920YS02001918        0.28      0.28      0.29      0.01         0.01
  YS02001923YS02001920        0.24      0.24      0.29      0.01         0.01
  YS02001926YS02001923        0.01      0.01      0.02      0.01         0.01
  YS02001929YS02001926        0.01      0.01      0.02      0.01         0.01
  YS02006553YS02006556        0.50      0.50      0.57      0.01         0.01
  YS02006556YS02006558        0.53      0.53      0.58      0.01         0.01
  YS02006558YS02006561        0.31      0.49      0.31      0.66         0.31
  YS02006561YS02001783        0.25      0.25      0.41      0.01         0.01
  YS02163301YS02001633        0.66      0.66      0.69      0.01         0.01
  YS02163601YS02164001        0.58      0.58      0.70      0.27         0.01
  YS02164001YS02001641        0.56      0.58      0.56      0.69         0.50
  YSB1154YSB6556              0.63      0.63      0.76      0.01         0.01
  YSB1171HS02004479           0.54      0.54      0.77      0.01         0.01
  YSB1174YSB1171              0.68      0.68      1.00      0.01         0.01
  YSB6556YSB1171              0.63      0.63      1.15      0.01         0.01
  
  
  ***************
  Pumping Summary
  ***************
  
  ---------------------------------------------------------------------------------------------------------
                                                  Min       Avg       Max     Total     Power    % Time Off
                        Percent   Number of      Flow      Flow      Flow    Volume     Usage    Pump Curve
  Pump                 Utilized   Start-Ups       LPS       LPS       LPS  10^6 ltr     Kw-hr    Low   High
  ---------------------------------------------------------------------------------------------------------
  CC-R1                    2.06           8      0.00   2507.69   3415.00     1.208     19.97    0.0  100.0
  CC-R2                    6.81          38      0.00   3192.69   3415.00     5.875     97.37    0.0  100.0
  CC-S1                    5.74          30      0.00    920.78   1000.00     1.412     13.76    0.0    0.0
  CC-S2                    5.71          22      0.00    920.44   1000.00     1.403     13.73    0.0    0.0
  JK-R1                    1.87          22      0.00   1993.29   5000.00     0.994      9.14    0.0    0.0
  JK-R2                    1.30          21      0.00   4636.36   5000.00     1.687     14.39    0.0    0.0
  JK-S                     4.71          28      0.00    510.04   1500.00     0.696     11.88    0.0    0.0
  XR-1                    97.91           2      0.00     95.00     95.00     2.679      9.61    0.0    0.0
  XR-2                    93.94           2      0.00     95.00     95.00     2.570      8.77    0.0    0.0
  XR-3                     0.00           1      0.00     95.00     95.00     0.000      0.00    0.0    0.0
  XR-4                     0.00           1      0.00     95.00     95.00     0.000      0.00    0.0    0.0
  

  Analysis begun on:  Wed Jul 12 21:34:16 2023
  Analysis ended on:  Wed Jul 12 21:34:32 2023
  Total elapsed time: 00:00:16