
  OWA STORM WATER MANAGEMENT MODEL - VERSION v5.1.14 (OWA 2022-07-31)
  --------------------------------------------------------------

  WARNING 04: minimum elevation drop used for Conduit WS02004404WS02004405
  WARNING 03: negative offset ignored for Link YS02001904YS02001907
  
  *********************************************************
  NOTE: The summary statistics displayed in this report are
  based on results found at every computational time step,  
  not just on results from each reporting time step.
  *********************************************************
  
  ****************
  Analysis Options
  ****************
  Flow Units ............... LPS
  Process Models:
    Rainfall/Runoff ........ YES
    RDII ................... NO
    Snowmelt ............... NO
    Groundwater ............ NO
    Flow Routing ........... YES
    Ponding Allowed ........ NO
    Water Quality .......... NO
  Infiltration Method ...... HORTON
  Flow Routing Method ...... DYNWAVE
  Surcharge Method ......... EXTRAN
  Starting Date ............ 08/28/2015 08:00:00
  Ending Date .............. 08/28/2015 16:00:00
  Antecedent Dry Days ...... 8.0
  Report Time Step ......... 00:01:00
  Wet Time Step ............ 00:01:00
  Dry Time Step ............ 00:01:00
  Routing Time Step ........ 30.00 sec
  Variable Time Step ....... YES
  Maximum Trials ........... 8
  Number of Threads ........ 1
  Head Tolerance ........... 0.001500 m
  
  
  **************************        Volume         Depth
  Runoff Quantity Continuity     hectare-m            mm
  **************************     ---------       -------
  Initial LID Storage ......         0.072         1.184
  Total Precipitation ......         4.472        73.829
  Evaporation Loss .........         0.000         0.000
  Infiltration Loss ........         0.211         3.476
  Surface Runoff ...........         3.462        57.149
  Final Storage ............         0.873        14.409
  Continuity Error (%) .....        -0.027
  
  
  **************************        Volume        Volume
  Flow Routing Continuity        hectare-m      10^6 ltr
  **************************     ---------     ---------
  Dry Weather Inflow .......         0.630         6.296
  Wet Weather Inflow .......         3.462        34.620
  Groundwater Inflow .......         0.000         0.000
  RDII Inflow ..............         0.000         0.000
  External Inflow ..........         0.105         1.045
  External Outflow .........         2.576        25.759
  Flooding Loss ............         1.612        16.121
  Evaporation Loss .........         0.000         0.000
  Exfiltration Loss ........         0.000         0.000
  Initial Stored Volume ....         0.303         3.031
  Final Stored Volume ......         0.321         3.212
  Continuity Error (%) .....        -0.224
  
  
  *************************
  Highest Continuity Errors
  *************************
  Node WS02006256 (-7.41%)
  Node YS02001884 (5.22%)
  Node YS02001583 (-4.93%)
  Node HS02004842 (1.79%)
  
  
  ***************************
  Time-Step Critical Elements
  ***************************
  Link WS02006280WS02006229 (48.51%)
  Link WS02006252WS02006251 (14.26%)
  Link WS02006238WS02006235 (10.24%)
  Link YS02001791YS02001793 (6.60%)
  Link WS02004404WS02004405 (5.94%)
  
  
  ********************************
  Highest Flow Instability Indexes
  ********************************
  Link WS02006238WS02006235 (24)
  Link WS02006256WS02006235 (23)
  Link WS02006113WS02006111 (22)
  Link WS02004404WS02004405 (20)
  Link WS02006229WS02006228 (20)
  
  
  *************************
  Routing Time Step Summary
  *************************
  Minimum Time Step           :     0.01 sec
  Average Time Step           :     2.41 sec
  Maximum Time Step           :     6.46 sec
  Percent in Steady State     :    -0.00
  Average Iterations per Step :     3.48
  Percent Not Converging      :    13.72
  
  
  ***************************
  Subcatchment Runoff Summary
  ***************************
  
  ------------------------------------------------------------------------------------------------------------------------------
                            Total      Total      Total      Total     Imperv       Perv      Total       Total     Peak  Runoff
                           Precip      Runon       Evap      Infil     Runoff     Runoff     Runoff      Runoff   Runoff   Coeff
  Subcatchment                 mm         mm         mm         mm         mm         mm         mm    10^6 ltr      LPS
  ------------------------------------------------------------------------------------------------------------------------------
  sub0                      73.83       0.00       0.00       1.01      67.42       4.16      71.58        0.06    46.90   0.970
  sub1                      73.83       0.00       0.00       1.54      57.78       5.74      63.52        0.42   301.86   0.860
  sub10                     73.83       0.00       0.00       0.98      54.15       3.82      57.97        0.64   471.00   0.785
  sub11                     73.83       0.00       0.00       0.89      50.33       3.57      53.89        0.63   483.48   0.730
  sub12                     73.83       0.00       0.00       1.56      51.16       6.23      57.39        0.50   404.93   0.777
  sub14                     73.83       0.00       0.00       0.97      47.66       3.83      51.50        0.49   374.48   0.697
  sub15                     73.83       0.00       0.00       4.48      42.85      14.23      57.08        0.98   691.50   0.773
  sub16                     73.83       0.00       0.00       4.73      41.79      16.24      58.03        0.61   462.45   0.786
  sub17                     73.83       0.00       0.00       5.08      46.13      17.04      63.17        0.54   403.82   0.856
  sub2                      73.83       0.00       0.00       7.14      42.24      18.16      60.40        0.56   333.82   0.818
  sub22                     73.83       0.00       0.00       7.99      40.00      22.76      62.76        3.96  2622.14   0.850
  sub23                     73.83       0.00       0.00       5.98      41.19      18.67      59.86        2.86  2023.06   0.811
  sub3                      73.83       0.00       0.00       7.67      41.83      17.40      59.24        1.33   722.61   0.802
  sub4                      73.83       0.00       0.00       1.70      56.93       5.49      62.41        1.30   756.90   0.845
  sub5                      73.83       0.00       0.00       0.87      55.90       3.42      59.32        0.67   486.27   0.803
  sub60                     73.83       0.00       0.00       1.40      49.22       5.44      54.66        0.72   558.98   0.740
  sub61                     73.83       0.00       0.00       2.15      49.18       8.11      57.29        1.05   818.55   0.776
  sub62                     73.83       0.00       0.00       0.95      52.43       3.70      56.13        1.54  1126.71   0.760
  sub63                     73.83       0.00       0.00       3.97      42.12      13.56      55.68        1.26   947.70   0.754
  sub64                     73.83       0.00       0.00       1.90      47.96       6.73      54.69        1.31   928.30   0.741
  sub65                     73.83       0.00       0.00       1.74      51.77       6.14      57.91        1.59  1085.67   0.784
  sub66                     73.83       0.00       0.00       4.70      40.74      12.28      53.02        2.47  1448.16   0.718
  sub67                     73.83       0.00       0.00       0.94      53.75       3.82      57.57        1.07   855.84   0.780
  sub68                     73.83       0.00       0.00       1.65      47.47       6.23      53.69        1.48  1121.11   0.727
  sub69                     73.83       0.00       0.00       1.53      49.65       7.25      56.90        2.11  1402.14   0.771
  sub7                      73.83       0.00       0.00       1.03      51.08       4.12      55.20        0.19   145.48   0.748
  sub70                     73.83       0.00       0.00       5.23      39.78      15.32      55.10        1.59   837.96   0.746
  sub71                     73.83       0.00       0.00       0.88      47.63       3.35      50.97        1.33   933.71   0.690
  sub72                     73.83       0.00       0.00       0.84      51.45       3.11      54.56        0.75   483.55   0.739
  sub8                      73.83       0.00       0.00       1.01      49.65       3.99      53.64        0.34   262.91   0.727
  sub9                      73.83       0.00       0.00       0.98      48.13       3.87      52.00        0.25   191.61   0.704
  

  ***********************
  LID Performance Summary
  ***********************

  --------------------------------------------------------------------------------------------------------------------
                                         Total      Evap     Infil   Surface    Drain    Initial     Final  Continuity
                                        Inflow      Loss      Loss   Outflow   Outflow   Storage   Storage       Error
  Subcatchment      LID Control             mm        mm        mm        mm        mm        mm        mm           %
  --------------------------------------------------------------------------------------------------------------------
  sub1              GreenRoof            73.83      0.00      0.00      0.00      0.00      7.05     80.91       -0.03
  sub10             GreenRoof            73.83      0.00      0.00      0.00      0.00      7.05     80.91       -0.03
  sub11             GreenRoof            73.83      0.00      0.00      0.00      0.00      7.05     80.91       -0.03
  sub12             GreenRoof            73.83      0.00      0.00      0.00      0.00      7.05     80.91       -0.03
  sub14             GreenRoof            73.83      0.00      0.00      0.00      0.00      7.05     80.91       -0.03
  sub15             GreenRoof            73.83      0.00      0.00      0.00      0.00      7.05     80.91       -0.03
  sub16             GreenRoof            73.83      0.00      0.00      0.00      0.00      7.05     80.91       -0.03
  sub17             GreenRoof            73.83      0.00      0.00      0.00      0.00      7.05     80.91       -0.03
  sub2              GreenRoof            73.83      0.00      0.00      0.00      0.00      7.05     80.91       -0.03
  sub22             GreenRoof            73.83      0.00      0.00      0.00      0.00      7.05     80.91       -0.03
  sub23             GreenRoof            73.83      0.00      0.00      0.00      0.00      7.05     80.91       -0.03
  sub3              GreenRoof            73.83      0.00      0.00      0.00      0.00      7.05     80.91       -0.03
  sub4              GreenRoof            73.83      0.00      0.00      0.00      0.00      7.05     80.91       -0.03
  sub5              GreenRoof            73.83      0.00      0.00      0.00      0.00      7.05     80.91       -0.03
  sub60             GreenRoof            73.83      0.00      0.00      0.00      0.00      7.05     80.91       -0.03
  sub61             GreenRoof            73.83      0.00      0.00      0.00      0.00      7.05     80.91       -0.03
  sub62             GreenRoof            73.83      0.00      0.00      0.00      0.00      7.05     80.91       -0.03
  sub63             GreenRoof            73.83      0.00      0.00      0.00      0.00      7.05     80.91       -0.03
  sub64             GreenRoof            73.83      0.00      0.00      0.00      0.00      7.05     80.91       -0.03
  sub65             GreenRoof            73.83      0.00      0.00      0.00      0.00      7.05     80.91       -0.03
  sub66             GreenRoof            73.83      0.00      0.00      0.00      0.00      7.05     80.91       -0.03
  sub67             GreenRoof            73.83      0.00      0.00      0.00      0.00      7.05     80.91       -0.03
  sub68             GreenRoof            73.83      0.00      0.00      0.00      0.00      7.05     80.91       -0.03
  sub69             GreenRoof            73.83      0.00      0.00      0.00      0.00      7.05     80.91       -0.03
  sub7              GreenRoof            73.83      0.00      0.00      0.00      0.00      7.05     80.91       -0.03
  sub70             GreenRoof            73.83      0.00      0.00      0.00      0.00      7.05     80.91       -0.03
  sub71             GreenRoof            73.83      0.00      0.00      0.00      0.00      7.05     80.91       -0.03
  sub72             GreenRoof            73.83      0.00      0.00      0.00      0.00      7.05     80.91       -0.03
  sub8              GreenRoof            73.83      0.00      0.00      0.00      0.00      7.05     80.91       -0.03
  sub9              GreenRoof            73.83      0.00      0.00      0.00      0.00      7.05     80.91       -0.03
  
  ******************
  Node Depth Summary
  ******************
  
  ---------------------------------------------------------------------------------
                                 Average  Maximum  Maximum  Time of Max    Reported
                                   Depth    Depth      HGL   Occurrence   Max Depth
  Node                 Type       Meters   Meters   Meters  days hr:min      Meters
  ---------------------------------------------------------------------------------
  HS02004478           JUNCTION     0.24     1.59    10.81     0  02:22        1.57
  HS02004479           JUNCTION     0.33     1.70    10.91     0  02:16        1.67
  HS02004480           JUNCTION     0.29     1.68    10.92     0  02:16        1.63
  HS02004770           JUNCTION     0.29     1.42    11.25     0  02:12        1.42
  HS02004777           JUNCTION     0.31     1.48    11.28     0  02:12        1.47
  HS02004785           JUNCTION     0.21     1.47    11.37     0  02:12        1.38
  HS02004788           JUNCTION     0.17     1.42    11.32     0  02:12        1.42
  HS02004792           JUNCTION     0.23     1.60    11.12     0  02:15        1.60
  HS02004799           JUNCTION     0.35     1.76    10.97     0  02:16        1.76
  HS02004802           JUNCTION     0.35     1.80    10.93     0  02:22        1.80
  HS02004807           JUNCTION     0.32     1.92    11.09     0  02:22        1.92
  HS02004817           JUNCTION     0.62     2.41    11.26     0  02:23        2.41
  HS02004824           JUNCTION     0.19     2.01    11.41     0  02:23        2.01
  HS02004830           JUNCTION     0.19     2.03    11.50     0  02:24        2.03
  HS02004837           JUNCTION     0.16     1.97    11.55     0  02:24        1.97
  HS02004842           JUNCTION     0.45     2.22    11.49     0  02:16        2.22
  HS02004848           JUNCTION     0.14     1.95    11.55     0  02:24        1.95
  HS02004852           JUNCTION     0.15     2.00    11.51     0  02:24        2.00
  HS02004856           JUNCTION     0.21     2.04    11.46     0  02:24        2.04
  HS02004862           JUNCTION     0.16     2.00    11.38     0  02:23        2.00
  HS02004870           JUNCTION     0.15     2.09    11.38     0  02:24        2.09
  HS02004876           JUNCTION     0.21     2.22    11.25     0  02:24        2.22
  HS02004881           JUNCTION     0.14     1.96    10.99     0  02:24        1.96
  HS02004901           JUNCTION     0.30     1.42    11.24     0  02:12        1.42
  WS02001211           JUNCTION     0.63     0.82     5.66     0  02:28        0.82
  WS02001212           JUNCTION     0.38     0.58     5.65     0  02:27        0.58
  WS02001213           JUNCTION     0.60     0.88     5.64     0  02:27        0.88
  WS02003059           JUNCTION     0.67     0.95     5.64     0  02:26        0.95
  WS02003060           JUNCTION     0.39     0.70     5.63     0  02:26        0.70
  WS02003066           JUNCTION     0.24     0.46     6.02     0  02:25        0.46
  WS02003067           JUNCTION     0.56     0.90     6.22     0  02:25        0.89
  WS02003069           JUNCTION     0.44     0.79     5.37     0  02:26        0.79
  WS02003072           JUNCTION     0.50     0.82     5.19     0  02:27        0.82
  WS02003073           JUNCTION     0.30     0.52     4.59     0  02:27        0.52
  WS02004138           JUNCTION     0.13     0.14     7.39     0  00:29        0.14
  WS02004139           JUNCTION     0.57     0.75     5.66     0  02:28        0.75
  WS02004401           JUNCTION     0.79     2.00     8.00     0  02:25        1.99
  WS02004402           JUNCTION     0.81     1.93     7.89     0  02:25        1.92
  WS02004403           JUNCTION     0.81     1.85     7.78     0  02:25        1.84
  WS02004404           JUNCTION     0.87     1.85     7.70     0  02:25        1.84
  WS02004405           JUNCTION     0.86     1.80     7.65     0  02:25        1.79
  WS02004406           JUNCTION     0.85     1.67     7.50     0  02:25        1.66
  WS02004407           JUNCTION     0.28     1.01     7.32     0  02:25        1.00
  WS02004409           JUNCTION     0.56     1.44     7.21     0  02:24        1.44
  WS02004410           JUNCTION     0.56     1.34     7.06     0  02:25        1.32
  WS02004411           JUNCTION     0.56     1.24     6.92     0  02:25        1.23
  WS02004412           JUNCTION     0.57     1.13     6.77     0  02:25        1.12
  WS02004413           JUNCTION     0.70     1.16     6.63     0  02:25        1.15
  WS02006109           JUNCTION     1.01     2.64     9.26     0  02:13        2.64
  WS02006110           JUNCTION     0.94     2.44     9.02     0  02:25        2.43
  WS02006111           JUNCTION     0.44     1.86     8.57     0  02:24        1.86
  WS02006112           JUNCTION     1.01     2.53     8.41     0  02:25        2.53
  WS02006113           JUNCTION     0.52     1.92     8.81     0  02:24        1.92
  WS02006115           JUNCTION     0.72     2.11     8.25     0  02:25        2.10
  WS02006116           JUNCTION     0.78     2.09     8.13     0  02:25        2.09
  WS02006228           JUNCTION     1.07     3.03     9.68     0  02:16        3.03
  WS02006229           JUNCTION     1.08     3.23     9.93     0  02:16        3.22
  WS02006230           JUNCTION     1.00     2.65     9.39     0  02:08        2.65
  WS02006231           JUNCTION     0.73     2.19     9.31     0  02:23        2.19
  WS02006232           JUNCTION     0.82     2.18     9.22     0  02:08        2.18
  WS02006234           JUNCTION     0.70     1.96     9.12     0  02:07        1.96
  WS02006235           JUNCTION     0.71     2.00     9.16     0  02:32        2.00
  WS02006238           JUNCTION     0.73     2.03     9.18     0  03:45        1.96
  WS02006239           JUNCTION     0.67     2.00     9.20     0  03:45        1.79
  WS02006240           JUNCTION     0.62     1.82     9.12     0  03:45        1.64
  WS02006242           JUNCTION     0.65     1.55     8.82     0  02:04        1.55
  WS02006243           JUNCTION     0.55     1.45     8.87     0  03:45        1.37
  WS02006245           JUNCTION     0.53     1.30     8.78     0  02:57        1.30
  WS02006247           JUNCTION     0.53     1.26     8.76     0  02:57        1.26
  WS02006248           JUNCTION     0.48     1.10     8.69     0  01:57        1.10
  WS02006249           JUNCTION     0.50     1.09     8.69     0  01:57        1.09
  WS02006251           JUNCTION     0.59     2.17     9.84     0  02:24        2.17
  WS02006252           JUNCTION     0.38     1.50     9.74     0  00:00        1.50
  WS02006253           JUNCTION     0.67     3.21    10.85     0  02:24        3.21
  WS02006256           JUNCTION     0.99     2.35     9.28     0  00:00        2.35
  WS02006280           JUNCTION     0.32     1.75    10.03     0  02:16        1.74
  WS02006284           JUNCTION     0.58     1.95    10.35     0  02:16        1.94
  WS02006287           JUNCTION     0.32     1.74    10.69     0  02:22        1.73
  WSF200               JUNCTION     0.24     0.53     5.76     0  02:25        0.53
  YS02001580           JUNCTION     0.08     1.05     9.59     0  02:12        0.77
  YS02001583           JUNCTION     0.11     1.02     9.52     0  02:12        0.82
  YS02001586           JUNCTION     0.19     1.13     9.30     0  02:12        1.13
  YS02001590           JUNCTION     0.29     1.40     9.26     0  02:12        1.40
  YS02001593           JUNCTION     0.22     1.34     9.20     0  02:12        1.28
  YS02001596           JUNCTION     0.30     1.69     9.11     0  02:32        1.69
  YS02001600           JUNCTION     0.37     1.87     9.00     0  02:12        1.86
  YS02001601           JUNCTION     0.57     2.06     8.90     0  02:11        2.06
  YS02001602           JUNCTION     0.48     1.87     8.77     0  02:15        1.87
  YS02001605           JUNCTION     0.45     1.78     8.68     0  02:24        1.78
  YS02001607           JUNCTION     0.44     1.68     8.53     0  02:32        1.68
  YS02001610           JUNCTION     0.48     1.68     8.48     0  02:16        1.68
  YS02001613           JUNCTION     0.44     1.68     8.52     0  02:32        1.66
  YS02001616           JUNCTION     0.37     1.61     8.52     0  02:24        1.61
  YS02001619           JUNCTION     0.35     1.61     8.54     0  02:18        1.61
  YS02001622           JUNCTION     0.33     1.59     8.49     0  02:32        1.59
  YS02001625           JUNCTION     0.59     1.78     8.38     0  02:16        1.78
  YS02001629           JUNCTION     0.46     1.85     8.40     0  02:19        1.85
  YS02001633           JUNCTION     0.54     2.08     8.53     0  02:24        2.08
  YS02001641           JUNCTION     0.52     2.00     8.44     0  02:32        1.98
  YS02001644           JUNCTION     0.51     1.92     8.35     0  02:20        1.92
  YS02001647           JUNCTION     0.29     1.78     8.39     0  02:23        1.74
  YS02001649           JUNCTION     0.34     2.02     8.41     0  02:23        1.96
  YS02001652           JUNCTION     0.22     1.90     8.50     0  02:23        1.80
  YS02001655           JUNCTION     0.17     1.75     8.60     0  02:23        1.59
  YS02001658           JUNCTION     0.12     1.56     8.70     0  02:23        1.36
  YS02001661           JUNCTION     0.15     1.37     8.77     0  02:23        1.14
  YS02001664           JUNCTION     0.06     0.62     8.55     0  02:24        0.58
  YS02001745           JUNCTION     0.06     0.82     8.33     0  02:24        0.82
  YS02001748           JUNCTION     0.11     1.40     8.47     0  02:21        1.25
  YS02001751           JUNCTION     0.14     1.45     8.33     0  02:21        1.45
  YS02001754           JUNCTION     0.19     1.70     8.31     0  02:23        1.69
  YS02001757           JUNCTION     0.35     2.04     8.30     0  02:23        2.03
  YS02001759           JUNCTION     0.29     2.14     8.50     0  02:24        2.14
  YS02001762           JUNCTION     0.29     2.12     8.52     0  02:24        2.12
  YS02001765           JUNCTION     0.27     2.08     8.53     0  02:24        2.08
  YS02001767           JUNCTION     0.26     2.02     8.51     0  02:24        2.02
  YS02001770           JUNCTION     0.28     1.95     8.44     0  02:18        1.95
  YS02001774           JUNCTION     0.34     2.05     8.47     0  02:18        2.00
  YS02001779           JUNCTION     0.17     1.68     8.37     0  02:18        1.68
  YS02001783           JUNCTION     0.24     1.28     7.42     0  02:32        1.28
  YS02001784           JUNCTION     0.25     1.14     7.20     0  02:24        1.12
  YS02001786           JUNCTION     0.21     0.89     6.92     0  02:24        0.87
  YS02001788           JUNCTION     0.15     0.62     6.60     0  02:25        0.62
  YS02001790           JUNCTION     0.18     0.73     6.37     0  02:25        0.72
  YS02001791           JUNCTION     0.12     0.44     5.91     0  02:26        0.44
  YS02001793           JUNCTION     0.06     0.29     5.13     0  02:20        0.27
  YS02001882           JUNCTION     0.30     1.76     8.48     0  02:24        1.76
  YS02001884           JUNCTION     0.39     1.85     8.47     0  02:24        1.85
  YS02001887           JUNCTION     0.46     1.90     8.44     0  02:24        1.90
  YS02001890           JUNCTION     0.49     1.81     8.32     0  02:18        1.81
  YS02001895           JUNCTION     0.27     1.57     8.32     0  02:32        1.56
  YS02001898           JUNCTION     0.27     1.58     8.31     0  02:32        1.57
  YS02001901           JUNCTION     0.38     1.68     8.29     0  02:18        1.67
  YS02001904           JUNCTION     0.37     1.65     8.28     0  02:24        1.65
  YS02001907           JUNCTION     0.68     1.96     8.25     0  02:18        1.96
  YS02001910           JUNCTION     0.48     1.97     8.48     0  02:19        1.91
  YS02001915           JUNCTION     0.30     1.92     8.64     0  02:19        1.83
  YS02001918           JUNCTION     0.15     1.81     8.88     0  02:19        1.52
  YS02001920           JUNCTION     0.23     2.07     9.08     0  02:19        1.81
  YS02001923           JUNCTION     0.11     1.97     9.23     0  02:19        1.82
  YS02001926           JUNCTION     0.15     1.90     9.35     0  02:19        1.90
  YS02001929           JUNCTION     0.08     1.78     9.47     0  02:18        1.78
  YS02006553           JUNCTION     0.68     2.01     8.30     0  02:24        2.01
  YS02006556           JUNCTION     0.66     2.06     8.37     0  02:24        2.06
  YS02006558           JUNCTION     0.70     2.12     8.38     0  02:24        2.12
  YS02006561           JUNCTION     0.15     0.94     7.60     0  02:24        0.90
  YS02163301           JUNCTION     0.48     1.97     8.49     0  02:24        1.97
  YS02163601           JUNCTION     0.57     2.08     8.48     0  02:24        2.08
  YS02164001           JUNCTION     0.51     2.02     8.48     0  02:32        2.00
  YSB1154              JUNCTION     0.46     2.10    11.16     0  02:24        2.10
  YSB1171              JUNCTION     0.60     1.95    10.85     0  02:16        1.95
  YSB1174              JUNCTION     0.41     1.89    10.99     0  02:24        1.89
  YSB6556              JUNCTION     0.36     1.80    10.97     0  02:24        1.80
  CC-1                 OUTFALL      0.00     0.00     0.00     0  00:00        0.00
  CC-2                 OUTFALL      0.00     0.00     0.00     0  00:00        0.00
  JK-1                 OUTFALL      0.00     0.00     0.00     0  00:00        0.00
  JK-2                 OUTFALL      0.00     0.00     0.00     0  00:00        0.00
  WSC                  OUTFALL      0.30     0.52     1.19     0  02:28        0.52
  CC-storage           STORAGE      0.76     1.58     7.08     0  02:44        1.58
  JK-storage           STORAGE      1.53     4.24     5.04     0  02:19        4.14
  XR-storage           STORAGE      7.85     9.26     7.26     0  08:00        9.26
  
  
  *******************
  Node Inflow Summary
  *******************
  
  -------------------------------------------------------------------------------------------------
                                  Maximum  Maximum                  Lateral       Total        Flow
                                  Lateral    Total  Time of Max      Inflow      Inflow     Balance
                                   Inflow   Inflow   Occurrence      Volume      Volume       Error
  Node                 Type           LPS      LPS  days hr:min    10^6 ltr    10^6 ltr     Percent
  -------------------------------------------------------------------------------------------------
  HS02004478           JUNCTION      0.00  2304.53     0  02:23           0        8.59      -0.006
  HS02004479           JUNCTION      0.00   383.67     0  02:17           0       0.804       0.111
  HS02004480           JUNCTION      0.00  2058.41     0  02:15           0        6.41       0.044
  HS02004770           JUNCTION   2023.06  2023.06     0  02:25        2.86        3.08       0.091
  HS02004777           JUNCTION      0.03   711.46     0  02:12    0.000864        1.84       0.276
  HS02004785           JUNCTION      0.15   727.41     0  02:12     0.00432        1.84       0.030
  HS02004788           JUNCTION    693.17   869.77     0  02:25        1.03        2.87       0.002
  HS02004792           JUNCTION   2622.42  3491.79     0  02:25        3.97        6.84       0.005
  HS02004799           JUNCTION    374.48  1745.25     0  02:13        0.49        5.81       0.049
  HS02004802           JUNCTION      0.00  1233.25     0  02:28           0        2.33       0.173
  HS02004807           JUNCTION    483.48  1678.79     0  02:25       0.626        2.49       0.174
  HS02004817           JUNCTION      0.60  1197.03     0  02:27      0.0173        1.92       0.878
  HS02004824           JUNCTION    756.95  1325.35     0  02:26         1.3        2.11       0.032
  HS02004830           JUNCTION      0.15   574.76     0  02:13     0.00432       0.989       0.128
  HS02004837           JUNCTION    477.35   739.24     0  02:16       0.822        1.26       0.085
  HS02004842           JUNCTION      0.00   742.64     0  02:16           0       0.731       1.820
  HS02004848           JUNCTION    722.61  1017.90     0  02:16        1.33        1.84      -0.000
  HS02004852           JUNCTION      0.00  1012.95     0  02:16           0        1.63       0.005
  HS02004856           JUNCTION    191.61  1054.23     0  02:16        0.25        1.88       0.101
  HS02004862           JUNCTION    334.02  1141.20     0  02:16       0.569        2.45       0.012
  HS02004870           JUNCTION    262.91  1241.04     0  02:23       0.343        2.78       0.020
  HS02004876           JUNCTION    301.86  1514.03     0  02:26       0.422         3.2       0.034
  HS02004881           JUNCTION    145.48  1651.96     0  02:24       0.186        3.39       0.009
  HS02004901           JUNCTION    462.45   727.69     0  02:25       0.608       0.958       0.179
  WS02001211           JUNCTION      7.35   205.12     0  02:59       0.212        5.44       0.612
  WS02001212           JUNCTION      0.00   212.24     0  02:59           0        5.41       0.290
  WS02001213           JUNCTION      0.00   217.69     0  02:58           0        5.39       0.333
  WS02003059           JUNCTION      0.00   223.35     0  02:58           0        5.38       0.596
  WS02003060           JUNCTION     16.53  1541.22     0  02:26       0.476        13.9       0.107
  WS02003066           JUNCTION      0.00  1343.75     0  02:25           0         8.1       0.019
  WS02003067           JUNCTION      0.00  1343.88     0  02:25           0         8.1       0.056
  WS02003069           JUNCTION      0.32  1539.85     0  02:26     0.00922        13.9       0.112
  WS02003072           JUNCTION      0.00  1538.98     0  02:27           0        13.9       0.152
  WS02003073           JUNCTION      1.82  1540.85     0  02:27      0.0524        13.9       0.158
  WS02004138           JUNCTION      0.00   380.00     0  00:00           0        5.25       0.054
  WS02004139           JUNCTION      0.32   191.10     0  00:29     0.00924        5.26       0.508
  WS02004401           JUNCTION      0.00  1343.58     0  02:24           0        8.21       0.132
  WS02004402           JUNCTION      0.00  1342.43     0  02:24           0         8.2       0.133
  WS02004403           JUNCTION      0.00  1342.01     0  02:25           0        8.19       0.130
  WS02004404           JUNCTION      0.16  1343.28     0  02:25     0.00467        8.18       0.107
  WS02004405           JUNCTION      0.04  1344.28     0  02:25      0.0011        8.18       0.162
  WS02004406           JUNCTION      0.00  1344.46     0  02:25           0        8.16       0.267
  WS02004407           JUNCTION      0.00  1344.56     0  02:25           0        8.14       0.021
  WS02004409           JUNCTION      0.00  1342.16     0  02:25           0        8.14       0.045
  WS02004410           JUNCTION      0.00  1342.57     0  02:25           0        8.14       0.065
  WS02004411           JUNCTION      0.00  1342.72     0  02:25           0        8.13       0.080
  WS02004412           JUNCTION      0.00  1343.13     0  02:25           0        8.12       0.102
  WS02004413           JUNCTION      0.00  1343.50     0  02:25           0        8.12       0.178
  WS02006109           JUNCTION      1.23  1288.55     0  02:22      0.0354           8       0.134
  WS02006110           JUNCTION      0.00  1122.25     0  02:39           0        7.71       0.110
  WS02006111           JUNCTION      0.00  1122.40     0  02:39           0         7.7       0.012
  WS02006112           JUNCTION    403.82  1342.74     0  02:25       0.542        8.24       0.235
  WS02006113           JUNCTION      0.00  1122.30     0  02:39           0         7.7       0.029
  WS02006115           JUNCTION      0.00  1342.44     0  02:25           0        8.22       0.085
  WS02006116           JUNCTION      0.00  1342.58     0  02:24           0        8.22       0.069
  WS02006228           JUNCTION      0.00  1287.91     0  02:22           0        7.97       0.067
  WS02006229           JUNCTION      0.00  2304.38     0  02:22           0        10.3       0.080
  WS02006230           JUNCTION     10.28  1025.95     0  02:22       0.296        4.09       0.247
  WS02006231           JUNCTION      0.00   523.29     0  03:45           0        2.87      -0.148
  WS02006232           JUNCTION      0.00   518.90     0  03:45           0        2.86       0.222
  WS02006234           JUNCTION      0.00   521.12     0  03:45           0        2.85      -0.341
  WS02006235           JUNCTION      0.00   521.34     0  03:45           0        2.81       0.444
  WS02006238           JUNCTION      0.00   415.78     0  02:21           0        2.67      -0.081
  WS02006239           JUNCTION      0.00   415.40     0  02:21           0        2.61      -0.077
  WS02006240           JUNCTION      0.00   415.00     0  02:21           0        2.59       0.020
  WS02006242           JUNCTION      0.00   416.31     0  02:32           0        2.58      -0.025
  WS02006243           JUNCTION      0.00   403.30     0  03:30           0        2.23      -0.111
  WS02006245           JUNCTION      0.00   403.31     0  03:30           0        2.24       0.379
  WS02006247           JUNCTION      0.00   403.35     0  03:30           0        2.24      -0.014
  WS02006248           JUNCTION      0.00   413.55     0  03:42           0        2.47      -0.012
  WS02006249           JUNCTION      0.00  1377.38     0  02:24           0        5.17       0.109
  WS02006251           JUNCTION      0.08  1700.10     0  02:24     0.00222        5.34       0.016
  WS02006252           JUNCTION      0.00   726.91     0  02:24           0        2.39      -0.745
  WS02006253           JUNCTION     46.90  1698.78     0  02:25       0.058        3.48       0.017
  WS02006256           JUNCTION      0.00   300.00     0  00:00           0       0.411      -6.900
  WS02006280           JUNCTION      0.00  2303.59     0  02:22           0        8.57       0.006
  WS02006284           JUNCTION      0.10  2302.86     0  02:22     0.00275        8.57       0.000
  WS02006287           JUNCTION      0.00  2303.78     0  02:22           0        8.57       0.012
  WSF200               JUNCTION      0.00  1344.13     0  02:25           0        8.09       0.011
  YS02001580           JUNCTION      0.00    74.05     0  02:12           0     0.00407       1.596
  YS02001583           JUNCTION      0.00   126.87     0  02:11           0      0.0152      -4.694
  YS02001586           JUNCTION    837.96   837.96     0  02:26        1.59         1.6       0.064
  YS02001590           JUNCTION      0.00   318.10     0  02:18           0        1.23      -0.035
  YS02001593           JUNCTION      0.00   318.02     0  02:21           0        1.23       0.012
  YS02001596           JUNCTION      0.00   317.97     0  02:25           0        1.23      -0.005
  YS02001600           JUNCTION      0.00   318.07     0  02:18           0        1.23       0.027
  YS02001601           JUNCTION   1402.14  1719.75     0  02:25        2.11        3.34       0.023
  YS02001602           JUNCTION      0.00   490.12     0  02:11           0        2.13       0.018
  YS02001605           JUNCTION      0.00   489.94     0  02:11           0        2.04       0.013
  YS02001607           JUNCTION      0.00   489.73     0  02:11           0        2.04       0.090
  YS02001610           JUNCTION      0.00   806.84     0  02:26           0        2.25       0.101
  YS02001613           JUNCTION      0.00   493.83     0  02:10           0        1.87       0.086
  YS02001616           JUNCTION      0.00   491.15     0  02:11           0        1.87       0.024
  YS02001619           JUNCTION   1448.16  1448.16     0  02:26        2.47        4.12      -0.001
  YS02001622           JUNCTION      0.00   996.94     0  02:25           0         3.9       0.003
  YS02001625           JUNCTION      0.00  1389.39     0  02:26           0        4.07       0.221
  YS02001629           JUNCTION      0.00   940.21     0  02:16           0         3.3       0.024
  YS02001633           JUNCTION   1085.87  1383.19     0  02:16         1.6        4.69       0.075
  YS02001641           JUNCTION      0.00  1378.15     0  02:16           0        4.48       0.064
  YS02001644           JUNCTION    928.34  1758.04     0  02:16        1.31        5.79       0.058
  YS02001647           JUNCTION      0.00  1757.05     0  02:16           0        5.43       0.009
  YS02001649           JUNCTION      0.00  2014.80     0  02:17           0         6.7       0.010
  YS02001652           JUNCTION      0.00   974.38     0  02:25           0        1.27      -0.077
  YS02001655           JUNCTION      0.15   974.50     0  02:25     0.00443        1.27       0.011
  YS02001658           JUNCTION      0.00   973.23     0  02:25           0        1.26      -0.012
  YS02001661           JUNCTION      0.00   973.02     0  02:25           0        1.26       0.007
  YS02001664           JUNCTION    947.70   947.70     0  02:25        1.26        1.26      -0.006
  YS02001745           JUNCTION    558.98   558.98     0  02:25       0.718       0.718       0.177
  YS02001748           JUNCTION      0.04   565.17     0  02:25      0.0013        0.72      -0.253
  YS02001751           JUNCTION      0.01   565.15     0  02:25    0.000317       0.723       0.027
  YS02001754           JUNCTION      0.26   565.85     0  02:25     0.00749       0.733      -0.164
  YS02001757           JUNCTION      0.00  3317.37     0  02:21           0        9.89       0.049
  YS02001759           JUNCTION    818.59  1386.88     0  02:24        1.05        2.45      -0.005
  YS02001762           JUNCTION      0.00   742.42     0  02:21           0         1.4       0.008
  YS02001765           JUNCTION      0.00   743.17     0  02:21           0         1.4       0.002
  YS02001767           JUNCTION      0.54   743.09     0  02:21      0.0154         1.4       0.008
  YS02001770           JUNCTION   1126.86  1126.86     0  02:25        1.54        1.59      -0.002
  YS02001774           JUNCTION      0.00   593.56     0  02:25           0       0.219       0.463
  YS02001779           JUNCTION      0.01   594.22     0  02:25    0.000144       0.175      -0.325
  YS02001783           JUNCTION      0.00  1170.54     0  02:24           0        3.61       0.005
  YS02001784           JUNCTION      1.06  1171.72     0  02:24      0.0305        3.64       0.014
  YS02001786           JUNCTION      0.06  1172.36     0  02:24     0.00162        3.65       0.018
  YS02001788           JUNCTION      0.07  1173.43     0  02:24     0.00204        3.65       0.008
  YS02001790           JUNCTION      0.15  1179.06     0  02:24     0.00446        3.65       0.023
  YS02001791           JUNCTION      0.00  1293.25     0  02:25           0        3.65      -0.025
  YS02001793           JUNCTION      0.00  1251.00     0  02:24           0        3.65       0.006
  YS02001882           JUNCTION      0.00    28.86     0  02:15           0      0.0128       5.907
  YS02001884           JUNCTION      0.00    52.04     0  02:15           0      0.0485       5.505
  YS02001887           JUNCTION    856.29   856.32     0  02:25        1.08        1.12       0.405
  YS02001890           JUNCTION      0.00   857.37     0  02:25           0        1.08       0.482
  YS02001895           JUNCTION      0.00   517.38     0  02:24           0       0.984       0.162
  YS02001898           JUNCTION      0.00   517.77     0  02:24           0       0.982       0.040
  YS02001901           JUNCTION      0.00   517.76     0  02:26           0       0.984       0.329
  YS02001904           JUNCTION      0.00   517.99     0  02:24           0       0.988       0.285
  YS02001907           JUNCTION      0.00  1947.28     0  02:25           0        3.15       0.576
  YS02001910           JUNCTION      0.00  1430.87     0  02:25           0        2.17       0.330
  YS02001915           JUNCTION    933.73  1430.97     0  02:25        1.33         2.2       0.073
  YS02001918           JUNCTION      0.00   505.14     0  02:25           0       0.882       0.002
  YS02001920           JUNCTION      2.87   504.81     0  02:25      0.0827       0.869       0.106
  YS02001923           JUNCTION      0.04   500.75     0  02:25     0.00109       0.773      -0.051
  YS02001926           JUNCTION      0.05   499.53     0  02:25      0.0015       0.758      -0.027
  YS02001929           JUNCTION    483.55   483.55     0  02:25        0.75        0.75      -0.153
  YS02006553           JUNCTION      0.00   799.91     0  02:35           0        2.16       0.553
  YS02006556           JUNCTION      0.00   800.19     0  02:36           0        2.17       0.376
  YS02006558           JUNCTION   1121.99  1169.82     0  02:24         1.5        3.64       0.097
  YS02006561           JUNCTION      0.00  1169.17     0  02:24           0        3.61       0.000
  YS02163301           JUNCTION      0.00   940.58     0  02:16           0         3.3       0.048
  YS02163601           JUNCTION      0.11  1382.41     0  02:16     0.00317        4.48       0.111
  YS02164001           JUNCTION      0.00  1381.15     0  02:16           0        4.48       0.059
  YSB1154              JUNCTION    486.27   486.27     0  02:25       0.672       0.673       0.224
  YSB1171              JUNCTION      0.00  1125.19     0  02:25           0        1.29       0.498
  YSB1174              JUNCTION    404.93   404.93     0  02:25       0.502       0.502       0.263
  YSB6556              JUNCTION      0.00   486.17     0  02:25           0       0.674       0.188
  CC-1                 OUTFALL       0.00   683.00     0  00:00           0        5.94       0.000
  CC-2                 OUTFALL       0.00   683.00     0  00:00           0        2.54       0.000
  JK-1                 OUTFALL       0.00  1000.00     0  00:00           0       0.371       0.000
  JK-2                 OUTFALL       0.00  1000.00     0  00:00           0           3       0.000
  WSC                  OUTFALL       0.00  1541.17     0  02:28           0        13.9       0.000
  CC-storage           STORAGE       0.00  3318.89     0  02:21           0        12.1      -0.255
  JK-storage           STORAGE       0.00  1281.28     0  02:24           0         3.8      -0.456
  XR-storage           STORAGE     200.00   200.00     0  00:00        5.76        6.36       0.001
  
  
  **********************
  Node Surcharge Summary
  **********************
  
  Surcharging occurs when water rises above the top of the highest conduit.
  ---------------------------------------------------------------------
                                               Max. Height   Min. Depth
                                   Hours       Above Crown    Below Rim
  Node                 Type      Surcharged         Meters       Meters
  ---------------------------------------------------------------------
  HS02004478           JUNCTION        0.48          0.666        0.274
  HS02004479           JUNCTION        0.61          0.903        0.147
  HS02004480           JUNCTION        0.65          0.966        0.134
  HS02004770           JUNCTION        0.56          0.720        0.000
  HS02004777           JUNCTION        0.56          0.780        0.000
  HS02004785           JUNCTION        0.51          0.770        0.020
  HS02004788           JUNCTION        0.50          0.720        0.000
  HS02004792           JUNCTION        0.62          0.900        0.000
  HS02004799           JUNCTION        0.76          1.060        0.000
  HS02004802           JUNCTION        0.66          1.090        0.120
  HS02004807           JUNCTION        0.64          1.220        0.000
  HS02004817           JUNCTION        1.20          1.713        0.027
  HS02004824           JUNCTION        0.50          1.310        0.000
  HS02004830           JUNCTION        0.48          1.330        0.000
  HS02004837           JUNCTION        0.44          1.273        0.067
  HS02004842           JUNCTION        0.57          1.520        0.000
  HS02004848           JUNCTION        0.39          1.253        0.117
  HS02004852           JUNCTION        0.42          1.299        0.121
  HS02004856           JUNCTION        0.41          1.268        0.032
  HS02004862           JUNCTION        0.44          1.300        0.000
  HS02004870           JUNCTION        0.46          1.392        0.008
  HS02004876           JUNCTION        0.52          1.518        0.042
  HS02004881           JUNCTION        0.50          1.258        0.192
  HS02004901           JUNCTION        0.56          0.720        0.000
  WS02004401           JUNCTION        1.48          1.002        0.658
  WS02004402           JUNCTION        1.52          0.927        0.813
  WS02004403           JUNCTION        1.53          0.845        1.185
  WS02004404           JUNCTION        1.69          0.849        1.931
  WS02004405           JUNCTION        1.65          0.795        2.005
  WS02004406           JUNCTION        1.61          0.669        1.781
  WS02004407           JUNCTION        0.01          0.012        2.328
  WS02004409           JUNCTION        0.98          0.435        1.925
  WS02004410           JUNCTION        0.96          0.339        2.201
  WS02004411           JUNCTION        0.86          0.238        2.292
  WS02004412           JUNCTION        0.77          0.129        2.181
  WS02004413           JUNCTION        1.18          0.159        2.041
  WS02006109           JUNCTION        2.24          1.820        0.000
  WS02006110           JUNCTION        1.80          1.528        0.322
  WS02006111           JUNCTION        1.14          1.055        0.815
  WS02006112           JUNCTION        1.87          1.529        0.151
  WS02006113           JUNCTION        1.15          1.116        0.814
  WS02006115           JUNCTION        1.33          1.101        1.149
  WS02006116           JUNCTION        1.35          1.031        1.259
  WS02006228           JUNCTION        2.23          2.200        0.000
  WS02006229           JUNCTION        0.89          1.052        0.018
  WS02006230           JUNCTION        1.69          1.570        0.000
  WS02006231           JUNCTION        1.71          1.479        0.051
  WS02006232           JUNCTION        1.95          1.480        0.000
  WS02006234           JUNCTION        1.71          1.240        0.000
  WS02006235           JUNCTION        1.75          1.290        0.000
  WS02006238           JUNCTION        1.79          1.314        0.116
  WS02006239           JUNCTION        1.70          1.256        0.034
  WS02006240           JUNCTION        1.68          1.114        0.276
  WS02006242           JUNCTION        1.77          0.820        0.000
  WS02006243           JUNCTION        1.66          0.738        0.032
  WS02006245           JUNCTION        1.64          0.586        0.264
  WS02006247           JUNCTION        1.65          0.550        0.210
  WS02006248           JUNCTION        1.60          0.380        0.000
  WS02006249           JUNCTION        1.63          0.390        0.000
  WS02006251           JUNCTION        1.54          1.139        0.041
  WS02006252           JUNCTION        1.77          1.100        0.000
  WS02006253           JUNCTION        1.55          2.169        0.311
  WS02006256           JUNCTION        6.99          2.050        0.000
  WS02006280           JUNCTION        0.76          0.704        0.076
  WS02006284           JUNCTION        0.68          0.670        0.130
  WS02006287           JUNCTION        0.58          0.740        0.150
  YS02001580           JUNCTION        0.56          0.450        0.000
  YS02001583           JUNCTION        0.57          0.384        0.116
  YS02001586           JUNCTION        0.65          0.510        0.000
  YS02001590           JUNCTION        0.72          0.750        0.000
  YS02001593           JUNCTION        0.72          0.716        0.124
  YS02001596           JUNCTION        0.83          0.960        0.110
  YS02001600           JUNCTION        0.99          1.190        0.000
  YS02001601           JUNCTION        1.33          1.440        0.000
  YS02001602           JUNCTION        1.22          1.270        0.000
  YS02001605           JUNCTION        1.16          1.180        0.000
  YS02001607           JUNCTION        0.69          0.680        0.000
  YS02001610           JUNCTION        0.71          0.680        0.000
  YS02001613           JUNCTION        0.68          0.675        0.025
  YS02001616           JUNCTION        0.64          0.610        0.000
  YS02001619           JUNCTION        0.63          0.610        0.000
  YS02001622           JUNCTION        0.63          0.588        0.032
  YS02001625           JUNCTION        0.80          0.780        0.000
  YS02001629           JUNCTION        0.58          0.470        0.000
  YS02001633           JUNCTION        0.82          1.060        0.000
  YS02001641           JUNCTION        0.74          1.000        0.100
  YS02001644           JUNCTION        0.71          0.920        0.000
  YS02001647           JUNCTION        0.49          0.782        0.118
  YS02001649           JUNCTION        0.58          1.022        0.028
  YS02001652           JUNCTION        0.42          0.870        0.260
  YS02001655           JUNCTION        0.30          0.750        0.450
  YS02001658           JUNCTION        0.19          0.560        0.740
  YS02001661           JUNCTION        0.04          0.299        1.091
  YS02001748           JUNCTION        0.13          0.315        0.875
  YS02001751           JUNCTION        0.22          0.451        0.749
  YS02001754           JUNCTION        0.33          0.648        0.502
  YS02001757           JUNCTION        0.63          1.035        0.175
  YS02001759           JUNCTION        0.55          1.137        0.073
  YS02001762           JUNCTION        0.51          1.124        0.026
  YS02001765           JUNCTION        0.48          1.081        0.019
  YS02001767           JUNCTION        0.45          1.023        0.007
  YS02001770           JUNCTION        0.43          0.920        0.000
  YS02001774           JUNCTION        0.50          1.050        0.000
  YS02001779           JUNCTION        0.33          0.680        0.000
  YS02001783           JUNCTION        0.45          0.479        1.121
  YS02001784           JUNCTION        0.43          0.336        1.154
  YS02001786           JUNCTION        0.33          0.087        1.343
  YS02001882           JUNCTION        0.40          0.759        0.071
  YS02001884           JUNCTION        0.41          0.789        0.081
  YS02001887           JUNCTION        0.44          0.852        0.098
  YS02001890           JUNCTION        0.45          0.760        0.000
  YS02001895           JUNCTION        0.39          0.573        0.177
  YS02001898           JUNCTION        0.38          0.547        0.193
  YS02001901           JUNCTION        0.43          0.685        0.185
  YS02001904           JUNCTION        0.42          0.648        0.202
  YS02001907           JUNCTION        0.68          0.950        0.000
  YS02001910           JUNCTION        0.48          0.971        0.129
  YS02001915           JUNCTION        0.40          0.919        0.081
  YS02001918           JUNCTION        0.32          0.810        0.000
  YS02001920           JUNCTION        0.33          1.072        0.068
  YS02001923           JUNCTION        0.09          0.758        0.062
  YS02001926           JUNCTION        0.11          0.900        0.000
  YS02001929           JUNCTION        0.01          0.780        0.000
  YS02006553           JUNCTION        0.70          1.014        0.176
  YS02006556           JUNCTION        0.57          1.016        0.334
  YS02006558           JUNCTION        0.55          1.018        0.382
  YS02006561           JUNCTION        0.28          0.140        1.010
  YS02163301           JUNCTION        0.80          0.975        0.055
  YS02163601           JUNCTION        0.85          1.080        0.000
  YS02164001           JUNCTION        0.75          1.019        0.081
  YSB1154              JUNCTION        0.87          1.400        0.000
  YSB1171              JUNCTION        0.88          1.100        0.000
  YSB1174              JUNCTION        0.79          1.186        0.064
  YSB6556              JUNCTION        0.72          1.100        0.000
  
  
  *********************
  Node Flooding Summary
  *********************
  
  Flooding refers to all water that overflows a node, whether it ponds or not.
  --------------------------------------------------------------------------
                                                             Total   Maximum
                                 Maximum   Time of Max       Flood    Ponded
                        Hours       Rate    Occurrence      Volume     Depth
  Node                 Flooded       LPS   days hr:min    10^6 ltr    Meters
  --------------------------------------------------------------------------
  HS02004770              0.40   1581.21      0  02:25       0.882     0.000
  HS02004777              0.01     33.82      0  02:12       0.000     0.000
  HS02004788              0.01    109.82      0  02:12       0.000     0.000
  HS02004792              0.38   2348.52      0  02:25       1.517     0.000
  HS02004799              0.18    213.73      0  02:25       0.080     0.000
  HS02004807              0.12    446.93      0  02:25       0.122     0.000
  HS02004824              0.07    129.34      0  02:26       0.021     0.000
  HS02004830              0.01      0.50      0  02:24       0.000     0.000
  HS02004842              0.06    110.56      0  02:25       0.015     0.000
  HS02004862              0.05    107.10      0  02:25       0.011     0.000
  HS02004901              0.45    727.55      0  02:25       0.736     0.000
  WS02006109              0.42    351.32      0  02:25       0.280     0.000
  WS02006228              0.01      1.66      0  02:16       0.000     0.000
  WS02006230              0.69    573.20      0  02:22       0.950     0.000
  WS02006232              0.18      0.98      0  02:32       0.000     0.000
  WS02006234              0.73    128.36      0  02:20       0.187     0.000
  WS02006235              0.01      0.64      0  02:32       0.000     0.000
  WS02006242              0.82    137.66      0  02:29       0.349     0.000
  WS02006248              1.07    339.17      0  02:07       1.148     0.000
  WS02006249              1.55   1316.31      0  02:24       3.612     0.000
  WS02006252              0.45    725.40      0  02:24       0.546     0.000
  WS02006256              0.37    294.12      0  02:19       0.216     0.000
  YS02001580              0.01     42.03      0  02:12       0.000     0.000
  YS02001586              0.44    520.33      0  02:26       0.361     0.000
  YS02001590              0.01      8.61      0  02:12       0.000     0.000
  YS02001600              0.01      2.68      0  02:12       0.000     0.000
  YS02001601              0.58   1321.43      0  02:25       1.205     0.000
  YS02001602              0.46     62.09      0  02:27       0.093     0.000
  YS02001605              0.01      0.33      0  02:32       0.000     0.000
  YS02001607              0.01      0.59      0  02:32       0.000     0.000
  YS02001610              0.40    806.52      0  02:26       0.606     0.000
  YS02001616              0.01     16.04      0  02:32       0.000     0.000
  YS02001619              0.01     25.33      0  02:32       0.000     0.000
  YS02001625              0.37   1388.90      0  02:26       0.969     0.000
  YS02001629              0.13    127.47      0  02:24       0.037     0.000
  YS02001633              0.01      0.96      0  02:24       0.000     0.000
  YS02001644              0.17   1129.64      0  02:25       0.351     0.000
  YS02001770              0.01     63.43      0  02:18       0.000     0.000
  YS02001774              0.01     42.41      0  02:18       0.000     0.000
  YS02001779              0.14    594.20      0  02:25       0.156     0.000
  YS02001890              0.17    340.18      0  02:25       0.087     0.000
  YS02001907              0.27   1905.77      0  02:25       0.982     0.000
  YS02001918              0.01     90.38      0  02:19       0.001     0.000
  YS02001926              0.01    106.98      0  02:19       0.000     0.000
  YS02001929              0.01    222.62      0  02:18       0.001     0.000
  YS02163601              0.01     11.94      0  02:32       0.000     0.000
  YSB1154                 0.01      0.15      0  02:24       0.000     0.000
  YSB1171                 0.28   1124.86      0  02:25       0.601     0.000
  
  
  **********************
  Storage Volume Summary
  **********************
  
  --------------------------------------------------------------------------------------------------
                         Average     Avg  Evap Exfil       Maximum     Max    Time of Max    Maximum
                          Volume    Pcnt  Pcnt  Pcnt        Volume    Pcnt     Occurrence    Outflow
  Storage Unit           1000 m3    Full  Loss  Loss       1000 m3    Full    days hr:min        LPS
  --------------------------------------------------------------------------------------------------
  CC-storage               2.108      33     0     0         4.416      69       0  02:44    1783.53
  JK-storage               0.077      26     0     0         0.213      73       0  02:19    2300.00
  XR-storage               0.942      65     0     0         1.111      77       0  08:00     380.00
  
  
  ***********************
  Outfall Loading Summary
  ***********************
  
  -----------------------------------------------------------
                         Flow       Avg       Max       Total
                         Freq      Flow      Flow      Volume
  Outfall Node           Pcnt       LPS       LPS    10^6 ltr
  -----------------------------------------------------------
  CC-1                  54.95    683.00    683.00       5.944
  CC-2                  23.43    683.00    683.00       2.544
  JK-1                   1.58   1000.00   1000.00       0.371
  JK-2                  15.52   1000.00   1000.00       3.001
  WSC                   99.95    645.91   1541.17      13.900
  -----------------------------------------------------------
  System                39.08   4011.91   1541.17      25.759
  
  
  ********************
  Link Flow Summary
  ********************
  
  -----------------------------------------------------------------------------
                                 Maximum  Time of Max   Maximum    Max/    Max/
                                  |Flow|   Occurrence   |Veloc|    Full    Full
  Link                 Type          LPS  days hr:min     m/sec    Flow   Depth
  -----------------------------------------------------------------------------
  1                    CONDUIT   1541.17     0  02:28      3.72    0.54    0.52
  HS02004478WS02006287 CONDUIT   2303.78     0  02:22      2.60    0.64    1.00
  HS02004479HS02004480 CONDUIT    384.88     0  02:17      0.55    0.37    1.00
  HS02004480HS02004478 CONDUIT   2056.78     0  02:15      2.94    8.66    1.00
  HS02004770HS02004777 CONDUIT    711.43     0  02:12      1.02    1.30    1.00
  HS02004777HS02004785 CONDUIT    727.26     0  02:12      1.10    0.89    1.00
  HS02004785HS02004788 CONDUIT    629.51     0  02:12      1.36    4.75    1.00
  HS02004788HS02004792 CONDUIT    869.37     0  02:25      1.43    0.58    1.00
  HS02004792HS02004799 CONDUIT   1624.47     0  02:13      2.32    0.99    1.00
  HS02004799HS02004480 CONDUIT   1744.51     0  02:13      2.49    2.20    1.00
  HS02004802HS02004478 CONDUIT   1233.75     0  02:28      1.76    1.09    1.00
  HS02004807HS02004802 CONDUIT   1233.25     0  02:28      1.76    2.35    1.00
  HS02004817HS02004807 CONDUIT   1196.97     0  02:26      1.71    0.71    1.00
  HS02004817HS02004824 CONDUIT   1196.43     0  02:27      1.71    0.54    1.00
  HS02004824HS02004830 CONDUIT    574.61     0  02:13      0.85    0.75    1.00
  HS02004830HS02004837 CONDUIT    578.37     0  02:13      0.91    0.58    1.00
  HS02004837HS02004842 CONDUIT    742.64     0  02:16      1.06    0.44    1.00
  HS02004842HS02004848 CONDUIT    742.34     0  02:16      1.11    0.43    1.00
  HS02004848HS02004852 CONDUIT   1012.95     0  02:16      1.53    1.14    1.00
  HS02004852HS02004856 CONDUIT    979.49     0  02:16      1.44    1.12    1.00
  HS02004856HS02004862 CONDUIT   1017.06     0  02:16      1.66    1.01    1.00
  HS02004862HS02004870 CONDUIT   1087.35     0  02:15      1.92    1.17    1.00
  HS02004870HS02004876 CONDUIT   1240.43     0  02:23      1.84    0.82    1.00
  HS02004876HS02004881 CONDUIT   1513.36     0  02:26      2.58   16.10    1.00
  HS02004881HS02006253 CONDUIT   1652.01     0  02:24      2.73    0.32    1.00
  HS02004901HS02004770 CONDUIT    265.79     0  02:36      0.38    1.00    1.00
  WS02001211WS02001212 CONDUIT    212.24     0  02:59      0.54    0.16    0.70
  WS02001212WS02001213 CONDUIT    217.69     0  02:58      1.04    0.34    0.57
  WS02001213WS02003059 CONDUIT    223.35     0  02:58      0.47    0.37    0.90
  WS02003059WS02003060 CONDUIT    230.66     0  02:59      0.66    0.15    0.82
  WS02003060WS02003069 CONDUIT   1539.53     0  02:26      2.10    0.60    0.62
  WS02003066WSF200     CONDUIT   1344.13     0  02:25      3.27    0.23    0.39
  WS02003067WS02003066 CONDUIT   1343.75     0  02:25      2.04    0.43    0.57
  WS02003069WS02003072 CONDUIT   1538.98     0  02:27      1.91    0.74    0.67
  WS02003072WS02003073 CONDUIT   1539.03     0  02:27      2.07    3.32    0.63
  WS02004138WS02004139 CONDUIT    190.77     0  00:29      2.16    0.04    0.42
  WS02004139WS02001211 CONDUIT    197.77     0  02:59      0.54    0.25    0.61
  WS02004401WS02004402 CONDUIT   1342.43     0  02:24      1.71    1.61    1.00
  WS02004402WS02004403 CONDUIT   1342.01     0  02:25      1.71    1.93    1.00
  WS02004403WS02004404 CONDUIT   1343.12     0  02:25      1.71    0.97    1.00
  WS02004404WS02004405 CONDUIT   1344.24     0  02:25      1.71   13.17    1.00
  WS02004405WS02004406 CONDUIT   1344.46     0  02:25      1.71    2.65    1.00
  WS02004406WS02004407 CONDUIT   1344.56     0  02:25      1.72    0.60    1.00
  WS02004407WS02004409 CONDUIT   1342.16     0  02:25      1.73    0.48    1.00
  WS02004409WS02004410 CONDUIT   1342.57     0  02:25      1.71    1.74    1.00
  WS02004410WS02004411 CONDUIT   1342.72     0  02:25      1.71    1.83    1.00
  WS02004411WS02004412 CONDUIT   1343.13     0  02:25      1.71    1.91    1.00
  WS02004412WS02004413 CONDUIT   1343.50     0  02:25      1.71    0.90    1.00
  WS02004413WS02003067 CONDUIT   1343.88     0  02:25      2.07    0.58    0.77
  WS02006109WS02006110 CONDUIT   1122.25     0  02:39      2.23    2.16    1.00
  WS02006110WS02006113 CONDUIT   1122.30     0  02:39      2.23    1.02    1.00
  WS02006111WS02006112 CONDUIT   1122.71     0  02:39      2.23    0.53    1.00
  WS02006112WS02006115 CONDUIT   1342.44     0  02:25      1.71    0.79    1.00
  WS02006113WS02006111 CONDUIT   1122.40     0  02:39      2.60    1.35    1.00
  WS02006115WS02006116 CONDUIT   1342.58     0  02:24      1.71    1.72    1.00
  WS02006116WS02004401 CONDUIT   1343.58     0  02:24      1.71    1.85    1.00
  WS02006228WS02006109 CONDUIT   1287.32     0  02:22      2.56    5.62    1.00
  WS02006229WS02006228 CONDUIT   1287.91     0  02:22      2.56    4.27    1.00
  WS02006230WS02006229 CONDUIT   1015.67     0  02:22      2.64   22.60    1.00
  WS02006231WS02006230 CONDUIT    525.12     0  03:45      1.42    7.97    1.00
  WS02006232WS02006231 CONDUIT    523.29     0  03:45      1.39    1.10    1.00
  WS02006234WS02006232 CONDUIT    518.90     0  03:45      1.41    1.05    1.00
  WS02006235WS02006234 CONDUIT    521.12     0  03:45      1.35    5.50    1.00
  WS02006238WS02006235 CONDUIT    415.78     0  02:21      1.45    0.93    1.00
  WS02006239WS02006238 CONDUIT    415.40     0  02:21      1.11    1.33    1.00
  WS02006240WS02006239 CONDUIT    415.00     0  02:21      1.26    1.31    1.00
  WS02006242WS02006240 CONDUIT    416.31     0  02:32      1.14    1.65    1.00
  WS02006243WS02006242 CONDUIT    403.41     0  03:30      1.34    0.86    1.00
  WS02006245WS02006243 CONDUIT    403.30     0  03:30      1.39    1.19    1.00
  WS02006247WS02006245 CONDUIT    403.31     0  03:30      1.37    3.20    1.00
  WS02006248WS02006247 CONDUIT    403.35     0  03:30      1.38    0.88    1.00
  WS02006249WS02006248 CONDUIT    413.55     0  03:42      1.38    2.27    1.00
  WS02006251WS02006249 CONDUIT   1377.38     0  02:24      3.58    3.97    1.00
  WS02006252WS02006251 CONDUIT    409.55     0  02:51     27.56    1.50    1.00
  WS02006253WS02006251 CONDUIT   1700.02     0  02:24      4.42    5.10    1.00
  WS02006256WS02006235 CONDUIT    288.93     0  00:00      4.23    3.06    1.00
  WS02006280WS02006229 CONDUIT   2304.38     0  02:22      4.41    0.49    1.00
  WS02006284WS02006280 CONDUIT   2303.59     0  02:22      3.02    0.96    1.00
  WS02006287WS02006284 CONDUIT   2302.76     0  02:22      2.93    1.07    1.00
  WSF200WS02003060     CONDUIT   1344.56     0  02:26      2.31    0.30    0.51
  YS02001580YS02001583 CONDUIT     74.05     0  02:12      0.53    0.29    1.00
  YS02001583YS02001586 CONDUIT    126.87     0  02:11      0.51    0.19    1.00
  YS02001586YS02001590 CONDUIT    318.10     0  02:18      1.26    0.56    1.00
  YS02001590YS02001593 CONDUIT    318.02     0  02:21      1.12    2.00    1.00
  YS02001593YS02001596 CONDUIT    317.97     0  02:25      1.77    0.50    1.00
  YS02001596YS02001600 CONDUIT    318.07     0  02:18      1.27    0.62    1.00
  YS02001600YS02001601 CONDUIT    318.12     0  02:18      1.13    0.55    1.00
  YS02001601YS02001602 CONDUIT    490.12     0  02:11      1.73    1.77    1.00
  YS02001602YS02001605 CONDUIT    489.94     0  02:11      1.73   10.37    1.00
  YS02001605YS02001607 CONDUIT    489.73     0  02:11      1.73    2.69    1.00
  YS02001607YS02001610 CONDUIT    492.09     0  02:10      0.63    0.47    1.00
  YS02001610YS02001613 CONDUIT    493.83     0  02:10      0.63    0.57    1.00
  YS02001613YS02001616 CONDUIT    491.15     0  02:11      0.63    0.42    1.00
  YS02001616YS02001619 CONDUIT    489.81     0  02:11      0.66    0.85    1.00
  YS02001619YS02001622 CONDUIT    996.94     0  02:25      1.27    1.47    1.00
  YS02001622YS02001625 CONDUIT    997.63     0  02:25      1.27    0.53    1.00
  YS02001625YS02001629 CONDUIT    940.21     0  02:16      1.20    0.45    1.00
  YS02001629YS02163301 CONDUIT    940.58     0  02:16      1.20    1.16    1.00
  YS02001633YS02163601 CONDUIT   1382.30     0  02:16      1.76    1.45    1.00
  YS02001641YS02001644 CONDUIT   1377.64     0  02:16      1.75    4.45    1.00
  YS02001644YS02001647 CONDUIT   1757.05     0  02:16      2.25    1.03    1.00
  YS02001647YS02001649 CONDUIT   1759.41     0  02:17      2.33    0.93    1.00
  YS02001649YS02001757 CONDUIT   2016.55     0  02:17      2.57    1.22    1.00
  YS02001652YS02001649 CONDUIT    975.22     0  02:25      1.24    0.48    1.00
  YS02001655YS02001652 CONDUIT    974.38     0  02:25      1.24    0.47    1.00
  YS02001658YS02001655 CONDUIT    974.35     0  02:25      1.85    0.41    1.00
  YS02001661YS02001658 CONDUIT    973.23     0  02:25      2.28    0.38    1.00
  YS02001664YS02001661 CONDUIT    973.02     0  02:25      2.26    0.31    0.81
  YS02001745YS02001748 CONDUIT    565.13     0  02:25      2.08    0.22    0.91
  YS02001748YS02001751 CONDUIT    565.14     0  02:25      1.61    0.29    1.00
  YS02001751YS02001754 CONDUIT    565.59     0  02:25      1.36    0.27    1.00
  YS02001754YS02001757 CONDUIT    565.43     0  02:25      0.72    0.23    1.00
  YS02001757CaochengTiaoxuchi CONDUIT   3318.89     0  02:21      4.23    1.44    1.00
  YS02001759YS02001757 CONDUIT   1392.00     0  02:24      1.77    0.99    1.00
  YS02001762YS02001759 CONDUIT    740.39     0  02:21      0.94    0.85    1.00
  YS02001765YS02001762 CONDUIT    742.42     0  02:21      0.95    0.70    1.00
  YS02001767YS02001765 CONDUIT    743.17     0  02:21      0.95    0.93    1.00
  YS02001770YS02001767 CONDUIT    742.56     0  02:21      0.95    2.94    1.00
  YS02001774YS02001770 CONDUIT    593.56     0  02:25      0.76    0.38    1.00
  YS02001779YS02001774 CONDUIT    594.22     0  02:25      0.76    0.30    1.00
  YS02001783YS02001784 CONDUIT   1170.66     0  02:24      2.33    1.61    1.00
  YS02001784YS02001785 CONDUIT   1172.30     0  02:24      2.33    2.73    1.00
  YS02001786YS02001788 CONDUIT   1173.36     0  02:24      2.50    2.26    0.89
  YS02001788YS02001790 CONDUIT   1178.90     0  02:24      2.72    0.87    0.84
  YS02001790YS02001791 CONDUIT   1293.25     0  02:25      3.43    1.41    0.70
  YS02001791YS02001793 CONDUIT   1251.00     0  02:24      6.59    0.54    0.44
  YS02001793JiankangQianchi CONDUIT   1281.28     0  02:24      2.54    0.10    0.65
  YS02001882YS02001884 CONDUIT     28.86     0  02:15      0.13    0.03    1.00
  YS02001884YS02001887 CONDUIT     52.04     0  02:15      0.09    0.07    1.00
  YS02001887YS02001890 CONDUIT    857.37     0  02:25      1.09    1.47    1.00
  YS02001890YS02001895 CONDUIT    517.38     0  02:24      0.66    0.24    1.00
  YS02001895YS02001898 CONDUIT    517.77     0  02:24      0.66    0.90    1.00
  YS02001898YS02001901 CONDUIT    517.76     0  02:26      0.66    0.33    1.00
  YS02001901YS02001904 CONDUIT    517.99     0  02:24      0.66    0.80    1.00
  YS02001904YS02001907 CONDUIT    517.64     0  02:26      0.66    0.18    1.00
  YS02001907YS02006553 CONDUIT    799.91     0  02:35      0.89    0.94    1.00
  YS02001910YS02001907 CONDUIT   1431.09     0  02:25      1.82    0.81    1.00
  YS02001915YS02001910 CONDUIT   1430.87     0  02:25      1.82    0.71    1.00
  YS02001918YS02001915 CONDUIT    505.18     0  02:25      0.64    0.28    1.00
  YS02001920YS02001918 CONDUIT    505.14     0  02:25      0.65    0.49    1.00
  YS02001923YS02001920 CONDUIT    501.94     0  02:25      0.71    0.23    1.00
  YS02001926YS02001923 CONDUIT    500.71     0  02:25      0.96    0.72    1.00
  YS02001929YS02001926 CONDUIT    499.48     0  02:25      1.11    0.24    1.00
  YS02006553YS02006556 CONDUIT    800.19     0  02:36      1.02    0.68    1.00
  YS02006556YS02006558 CONDUIT    801.38     0  02:36      1.02    0.63    1.00
  YS02006558YS02006561 CONDUIT   1169.17     0  02:24      4.14    2.58    1.00
  YS02006561YS02001783 CONDUIT   1170.54     0  02:24      2.33    0.61    1.00
  YS02163301YS02001633 CONDUIT    940.95     0  02:16      1.20    0.88    1.00
  YS02163601YS02164001 CONDUIT   1381.15     0  02:16      1.76    1.22    1.00
  YS02164001YS02001641 CONDUIT   1378.15     0  02:16      1.75    1.88    1.00
  YSB1154YSB6556       CONDUIT    486.17     0  02:25      1.26    0.87    1.00
  YSB1171HS02004479    CONDUIT    383.67     0  02:17      0.76    0.26    1.00
  YSB1174YSB1171       CONDUIT    405.08     0  02:25      1.05    0.62    1.00
  YSB6556YSB1171       CONDUIT    487.22     0  02:25      1.27    0.50    1.00
  CC-R1                PUMP       683.00     0  00:00              1.00
  CC-R2                PUMP       683.00     0  00:00              1.00
  CC-S1                PUMP       200.00     0  00:00              1.00
  CC-S2                PUMP       200.00     0  00:00              1.00
  JK-R1                PUMP      1000.00     0  00:00              1.00
  JK-R2                PUMP      1000.00     0  00:00              1.00
  JK-S                 PUMP       300.00     0  00:00              1.00
  XR-1                 PUMP        95.00     0  00:00              1.00
  XR-2                 PUMP        95.00     0  00:00              1.00
  XR-3                 PUMP        95.00     0  00:00              1.00
  XR-4                 PUMP        95.00     0  00:00              1.00
  
  
  ***************************
  Flow Classification Summary
  ***************************
  
  -------------------------------------------------------------------------------------
                      Adjusted    ---------- Fraction of Time in Flow Class ---------- 
                       /Actual         Up    Down  Sub   Sup   Up    Down  Norm  Inlet 
  Conduit               Length    Dry  Dry   Dry   Crit  Crit  Crit  Crit  Ltd   Ctrl  
  -------------------------------------------------------------------------------------
  1                       1.00   0.00  0.00  0.00  0.00  1.00  0.00  0.00  0.28  0.00
  HS02004478WS02006287    1.00   0.11  0.00  0.00  0.60  0.29  0.00  0.00  0.59  0.00
  HS02004479HS02004480    1.00   0.05  0.00  0.00  0.95  0.00  0.00  0.00  0.11  0.00
  HS02004480HS02004478    1.00   0.09  0.00  0.00  0.46  0.00  0.00  0.45  0.00  0.00
  HS02004770HS02004777    1.00   0.00  0.09  0.00  0.91  0.00  0.00  0.00  0.03  0.00
  HS02004777HS02004785    1.00   0.00  0.00  0.00  1.00  0.00  0.00  0.00  0.12  0.00
  HS02004785HS02004788    1.00   0.00  0.00  0.00  1.00  0.00  0.00  0.00  0.00  0.00
  HS02004788HS02004792    1.00   0.00  0.00  0.00  0.99  0.01  0.00  0.00  0.90  0.00
  HS02004792HS02004799    1.00   0.00  0.00  0.00  0.98  0.02  0.00  0.00  0.86  0.00
  HS02004799HS02004480    1.00   0.00  0.05  0.00  0.89  0.00  0.05  0.00  0.00  0.00
  HS02004802HS02004478    1.00   0.09  0.00  0.00  0.90  0.00  0.00  0.00  0.02  0.00
  HS02004807HS02004802    1.00   0.09  0.00  0.00  0.90  0.00  0.00  0.01  0.00  0.00
  HS02004817HS02004807    1.00   0.00  0.09  0.00  0.91  0.00  0.00  0.00  0.01  0.00
  HS02004817HS02004824    1.00   0.00  0.00  0.00  1.00  0.00  0.00  0.00  0.82  0.00
  HS02004824HS02004830    1.00   0.00  0.00  0.00  1.00  0.00  0.00  0.00  0.01  0.00
  HS02004830HS02004837    1.00   0.00  0.00  0.00  1.00  0.00  0.00  0.00  0.88  0.00
  HS02004837HS02004842    1.00   0.00  0.00  0.00  1.00  0.00  0.00  0.00  0.11  0.00
  HS02004842HS02004848    1.00   0.00  0.09  0.00  0.91  0.00  0.00  0.00  0.56  0.00
  HS02004848HS02004852    1.00   0.09  0.00  0.00  0.91  0.00  0.00  0.00  0.69  0.00
  HS02004852HS02004856    1.00   0.09  0.00  0.00  0.90  0.00  0.00  0.00  0.68  0.00
  HS02004856HS02004862    1.00   0.00  0.11  0.00  0.89  0.00  0.00  0.00  0.74  0.00
  HS02004862HS02004870    1.00   0.00  0.00  0.00  1.00  0.00  0.00  0.00  0.03  0.00
  HS02004870HS02004876    1.00   0.00  0.00  0.00  0.99  0.01  0.00  0.00  0.86  0.00
  HS02004876HS02004881    1.00   0.04  0.00  0.00  0.73  0.24  0.00  0.00  0.00  0.00
  HS02004881HS02006253    1.00   0.03  0.03  0.00  0.45  0.02  0.00  0.47  0.17  0.00
  HS02004901HS02004770    1.00   0.09  0.00  0.00  0.91  0.00  0.00  0.00  0.00  0.00
  WS02001211WS02001212    1.00   0.00  0.04  0.00  0.96  0.00  0.00  0.00  0.00  0.00
  WS02001212WS02001213    1.00   0.04  0.00  0.00  0.53  0.00  0.43  0.00  0.00  0.00
  WS02001213WS02003059    1.00   0.00  0.00  0.00  0.99  0.00  0.00  0.00  0.00  0.00
  WS02003059WS02003060    1.00   0.00  0.00  0.00  1.00  0.00  0.00  0.00  0.03  0.00
  WS02003060WS02003069    1.00   0.00  0.00  0.00  0.99  0.01  0.00  0.00  0.55  0.00
  WS02003066WSF200        1.00   0.07  0.00  0.00  0.00  0.93  0.00  0.00  0.66  0.00
  WS02003067WS02003066    1.00   0.07  0.00  0.00  0.93  0.00  0.00  0.00  0.00  0.00
  WS02003069WS02003072    1.00   0.00  0.00  0.00  1.00  0.00  0.00  0.00  0.66  0.00
  WS02003072WS02003073    1.00   0.00  0.00  0.00  0.00  0.00  0.00  1.00  0.00  0.00
  WS02004138WS02004139    1.00   0.00  0.01  0.00  0.96  0.01  0.00  0.02  0.98  0.00
  WS02004139WS02001211    1.00   0.00  0.00  0.00  0.99  0.00  0.00  0.00  0.00  0.00
  WS02004401WS02004402    1.00   0.04  0.00  0.00  0.96  0.00  0.00  0.00  0.00  0.00
  WS02004402WS02004403    1.00   0.04  0.00  0.00  0.96  0.00  0.00  0.00  0.00  0.00
  WS02004403WS02004404    1.00   0.00  0.04  0.00  0.96  0.00  0.00  0.00  0.00  0.00
  WS02004404WS02004405    1.00   0.00  0.00  0.00  1.00  0.00  0.00  0.00  0.00  0.00
  WS02004405WS02004406    1.00   0.00  0.00  0.00  1.00  0.00  0.00  0.00  0.00  0.00
  WS02004406WS02004407    1.00   0.00  0.05  0.00  0.95  0.00  0.00  0.00  0.00  0.00
  WS02004407WS02004409    1.00   0.05  0.00  0.00  0.94  0.00  0.00  0.00  0.83  0.00
  WS02004409WS02004410    1.00   0.05  0.00  0.00  0.95  0.00  0.00  0.00  0.00  0.00
  WS02004410WS02004411    1.00   0.05  0.00  0.00  0.95  0.00  0.00  0.00  0.00  0.00
  WS02004411WS02004412    1.00   0.06  0.00  0.00  0.94  0.00  0.00  0.00  0.00  0.00
  WS02004412WS02004413    1.00   0.06  0.00  0.00  0.94  0.00  0.00  0.00  0.01  0.00
  WS02004413WS02003067    1.00   0.06  0.01  0.00  0.00  0.00  0.93  0.00  0.00  0.00
  WS02006109WS02006110    1.00   0.00  0.01  0.00  0.97  0.00  0.03  0.00  0.00  0.00
  WS02006110WS02006113    1.00   0.01  0.03  0.00  0.97  0.00  0.00  0.00  0.00  0.00
  WS02006111WS02006112    1.00   0.04  0.00  0.00  0.96  0.00  0.00  0.00  0.77  0.00
  WS02006112WS02006115    1.00   0.04  0.00  0.00  0.96  0.00  0.00  0.00  0.00  0.00
  WS02006113WS02006111    1.00   0.03  0.00  0.00  0.26  0.71  0.00  0.00  0.06  0.00
  WS02006115WS02006116    1.00   0.04  0.00  0.00  0.95  0.00  0.00  0.01  0.00  0.00
  WS02006116WS02004401    1.00   0.04  0.00  0.00  0.96  0.00  0.00  0.00  0.00  0.00
  WS02006228WS02006109    1.00   0.00  0.00  0.00  1.00  0.00  0.00  0.00  0.00  0.00
  WS02006229WS02006228    1.00   0.00  0.00  0.00  0.99  0.00  0.00  0.01  0.00  0.00
  WS02006230WS02006229    1.00   0.00  0.00  0.00  0.98  0.00  0.00  0.02  0.02  0.00
  WS02006231WS02006230    1.00   0.00  0.00  0.00  0.56  0.00  0.44  0.00  0.00  0.00
  WS02006232WS02006231    1.00   0.00  0.00  0.00  0.99  0.00  0.01  0.00  0.00  0.00
  WS02006234WS02006232    1.00   0.00  0.00  0.00  1.00  0.00  0.00  0.00  0.04  0.00
  WS02006235WS02006234    1.00   0.00  0.00  0.00  0.95  0.00  0.05  0.00  0.00  0.00
  WS02006238WS02006235    1.00   0.00  0.00  0.00  1.00  0.00  0.00  0.00  0.01  0.00
  WS02006239WS02006238    1.00   0.00  0.00  0.00  1.00  0.00  0.00  0.00  0.12  0.00
  WS02006240WS02006239    1.00   0.00  0.00  0.00  0.77  0.00  0.00  0.23  0.06  0.00
  WS02006242WS02006240    1.00   0.00  0.00  0.00  1.00  0.00  0.00  0.00  0.00  0.00
  WS02006243WS02006242    1.00   0.00  0.00  0.00  0.99  0.00  0.00  0.00  0.67  0.00
[...]
  WS02006284WS02006280    1.00   0.10  0.00  0.00  0.15  0.02  0.00  0.73  0.00  0.00
  WS02006287WS02006284    1.00   0.08  0.02  0.00  0.43  0.46  0.00  0.00  0.64  0.00
  WSF200WS02003060        1.00   0.00  0.07  0.00  0.41  0.51  0.00  0.00  0.62  0.00
  YS02001580YS02001583    1.00   0.27  0.42  0.00  0.31  0.00  0.00  0.00  0.64  0.00
  YS02001583YS02001586    1.00   0.30  0.28  0.00  0.42  0.00  0.00  0.00  0.64  0.00
  YS02001586YS02001590    1.00   0.09  0.00  0.00  0.64  0.02  0.00  0.25  0.36  0.00
  YS02001590YS02001593    1.00   0.09  0.00  0.00  0.16  0.00  0.75  0.00  0.00  0.00
  YS02001593YS02001596    1.00   0.09  0.00  0.00  0.19  0.01  0.00  0.70  0.02  0.00
  YS02001596YS02001600    1.00   0.10  0.00  0.00  0.29  0.02  0.00  0.59  0.05  0.00
  YS02001600YS02001601    1.00   0.09  0.00  0.00  0.90  0.00  0.00  0.00  0.61  0.00
  YS02001601YS02001602    1.00   0.09  0.00  0.00  0.91  0.00  0.00  0.00  0.00  0.00
  YS02001602YS02001605    1.00   0.09  0.00  0.00  0.90  0.00  0.00  0.00  0.00  0.00
  YS02001605YS02001607    1.00   0.10  0.00  0.00  0.90  0.00  0.00  0.00  0.00  0.00
  YS02001607YS02001610    1.00   0.09  0.00  0.00  0.90  0.00  0.00  0.00  0.01  0.00
  YS02001610YS02001613    1.00   0.09  0.00  0.00  0.91  0.00  0.00  0.00  0.00  0.00
  YS02001613YS02001616    1.00   0.09  0.00  0.00  0.91  0.00  0.00  0.00  0.00  0.00
  YS02001616YS02001619    1.00   0.09  0.00  0.00  0.91  0.00  0.00  0.00  0.00  0.00
  YS02001619YS02001622    1.00   0.09  0.00  0.00  0.91  0.00  0.00  0.00  0.33  0.00
  YS02001622YS02001625    1.00   0.09  0.00  0.00  0.91  0.00  0.00  0.00  0.04  0.00
  YS02001625YS02001629    1.00   0.09  0.03  0.00  0.22  0.00  0.66  0.00  0.00  0.00
  YS02001629YS02163301    1.00   0.10  0.00  0.00  0.89  0.00  0.00  0.00  0.00  0.00
  YS02001633YS02163601    1.00   0.00  0.01  0.00  0.99  0.00  0.00  0.00  0.15  0.00
  YS02001641YS02001644    1.00   0.00  0.00  0.00  1.00  0.00  0.00  0.00  0.00  0.00
  YS02001644YS02001647    1.00   0.00  0.11  0.00  0.89  0.00  0.00  0.00  0.00  0.00
  YS02001647YS02001649    1.00   0.00  0.11  0.00  0.51  0.38  0.00  0.00  0.57  0.00
  YS02001649YS02001757    1.00   0.00  0.00  0.00  0.61  0.39  0.00  0.00  0.48  0.00
  YS02001652YS02001649    1.00   0.00  0.00  0.00  0.98  0.02  0.00  0.00  0.75  0.00
  YS02001655YS02001652    1.00   0.00  0.00  0.00  0.27  0.02  0.00  0.70  0.06  0.00
  YS02001658YS02001655    1.00   0.00  0.10  0.00  0.55  0.35  0.00  0.00  0.71  0.00
  YS02001661YS02001658    1.00   0.10  0.00  0.00  0.37  0.53  0.00  0.00  0.71  0.00
  YS02001664YS02001661    1.00   0.09  0.00  0.00  0.72  0.19  0.00  0.00  0.85  0.00
  YS02001745YS02001748    1.00   0.00  0.00  0.00  0.11  0.01  0.00  0.88  0.04  0.00
  YS02001748YS02001751    1.00   0.00  0.00  0.00  0.75  0.25  0.00  0.00  0.76  0.00
  YS02001751YS02001754    1.00   0.00  0.00  0.00  0.23  0.01  0.00  0.76  0.04  0.00
  YS02001754YS02001757    1.00   0.00  0.00  0.00  1.00  0.00  0.00  0.00  0.83  0.00
  YS02001757CaochengTiaoxuchi    1.00   0.00  0.00  0.00  0.89  0.11  0.00  0.00  0.78  0.00
  YS02001759YS02001757    1.00   0.00  0.00  0.00  1.00  0.00  0.00  0.00  0.62  0.00
  YS02001762YS02001759    1.00   0.00  0.00  0.00  1.00  0.00  0.00  0.00  0.04  0.00
  YS02001765YS02001762    1.00   0.00  0.00  0.00  1.00  0.00  0.00  0.00  0.71  0.00
  YS02001767YS02001765    1.00   0.00  0.00  0.00  1.00  0.00  0.00  0.00  0.00  0.00
  YS02001770YS02001767    1.00   0.00  0.00  0.00  1.00  0.00  0.00  0.00  0.00  0.00
  YS02001774YS02001770    1.00   0.00  0.09  0.00  0.75  0.00  0.15  0.00  0.03  0.00
  YS02001779YS02001774    1.00   0.00  0.00  0.00  1.00  0.00  0.00  0.00  0.76  0.00
  YS02001783YS02001784    1.00   0.00  0.12  0.00  0.88  0.00  0.00  0.00  0.57  0.00
  YS02001784YS02001785    1.00   0.00  0.00  0.00  1.00  0.00  0.00  0.00  0.17  0.00
  YS02001786YS02001788    1.00   0.00  0.00  0.00  0.65  0.35  0.00  0.00  0.00  0.00
  YS02001788YS02001790    1.00   0.00  0.00  0.00  0.15  0.85  0.00  0.00  0.81  0.00
  YS02001790YS02001791    1.00   0.00  0.00  0.00  0.02  0.98  0.00  0.00  0.16  0.00
  YS02001791YS02001793    1.00   0.00  0.00  0.00  0.00  1.00  0.00  0.00  0.01  0.00
  YS02001793JiankangQianchi    1.00   0.00  0.00  0.00  0.99  0.01  0.00  0.00  0.95  0.00
  YS02001882YS02001884    1.00   0.10  0.00  0.00  0.89  0.00  0.00  0.00  0.00  0.00
  YS02001884YS02001887    1.00   0.06  0.02  0.00  0.91  0.00  0.00  0.00  0.00  0.00
  YS02001887YS02001890    1.00   0.00  0.00  0.00  0.95  0.00  0.04  0.00  0.00  0.00
  YS02001890YS02001895    1.00   0.00  0.10  0.00  0.89  0.00  0.00  0.00  0.00  0.00
  YS02001895YS02001898    1.00   0.11  0.00  0.00  0.87  0.00  0.02  0.00  0.00  0.00
  YS02001898YS02001901    1.00   0.11  0.00  0.00  0.89  0.00  0.00  0.00  0.01  0.00
  YS02001901YS02001904    1.00   0.11  0.00  0.00  0.89  0.00  0.00  0.00  0.00  0.00
  YS02001904YS02001907    1.00   0.00  0.11  0.00  0.89  0.00  0.00  0.00  0.00  0.00
  YS02001907YS02006553    1.00   0.00  0.04  0.00  0.96  0.00  0.00  0.00  0.00  0.00
  YS02001910YS02001907    1.00   0.00  0.00  0.00  0.95  0.00  0.00  0.04  0.12  0.00
  YS02001915YS02001910    1.00   0.00  0.00  0.00  0.96  0.04  0.00  0.00  0.16  0.00
  YS02001918YS02001915    1.00   0.00  0.00  0.00  0.96  0.04  0.00  0.00  0.76  0.00
  YS02001920YS02001918    1.00   0.00  0.00  0.00  1.00  0.00  0.00  0.00  0.00  0.00
  YS02001923YS02001920    1.00   0.00  0.00  0.00  1.00  0.00  0.00  0.00  0.93  0.00
  YS02001926YS02001923    1.00   0.00  0.07  0.00  0.07  0.00  0.86  0.00  0.00  0.00
  YS02001929YS02001926    1.00   0.00  0.09  0.00  0.91  0.00  0.00  0.00  0.83  0.00
  YS02006553YS02006556    1.00   0.02  0.00  0.00  0.98  0.00  0.00  0.00  0.03  0.00
  YS02006556YS02006558    1.00   0.00  0.00  0.00  1.00  0.00  0.00  0.00  0.00  0.00
  YS02006558YS02006561    1.00   0.12  0.00  0.00  0.06  0.82  0.00  0.00  0.18  0.00
  YS02006561YS02001783    1.00   0.12  0.00  0.00  0.11  0.77  0.00  0.00  0.70  0.00
  YS02163301YS02001633    1.00   0.00  0.10  0.00  0.90  0.00  0.00  0.00  0.00  0.00
  YS02163601YS02164001    1.00   0.00  0.07  0.00  0.93  0.00  0.00  0.00  0.00  0.00
  YS02164001YS02001641    1.00   0.01  0.07  0.00  0.93  0.00  0.00  0.00  0.05  0.00
  YSB1154YSB6556          1.00   0.09  0.00  0.00  0.91  0.00  0.00  0.00  0.02  0.00
  YSB1171HS02004479       1.00   0.05  0.00  0.00  0.94  0.00  0.00  0.01  0.10  0.00
  YSB1174YSB1171          1.00   0.06  0.02  0.00  0.92  0.00  0.00  0.00  0.00  0.00
  YSB6556YSB1171          1.00   0.05  0.04  0.00  0.91  0.00  0.00  0.00  0.00  0.00
  
  
  *************************
  Conduit Surcharge Summary
  *************************
  
  ----------------------------------------------------------------------------
                                                           Hours        Hours 
                         --------- Hours Full --------   Above Full   Capacity
  Conduit                Both Ends  Upstream  Dnstream   Normal Flow   Limited
  ----------------------------------------------------------------------------
  HS02004478WS02006287        0.48      0.48      0.66      0.01         0.01
  HS02004479HS02004480        0.66      0.66      0.69      0.01         0.01
  HS02004480HS02004478        0.58      0.65      0.58      1.71         0.58
  HS02004770HS02004777        0.56      0.56      0.56      0.11         0.06
  HS02004777HS02004785        0.51      0.51      0.56      0.01         0.01
  HS02004785HS02004788        0.50      0.51      0.50      1.39         0.44
  HS02004788HS02004792        0.50      0.50      0.62      0.01         0.01
  HS02004792HS02004799        0.62      0.62      0.76      0.01         0.01
  HS02004799HS02004480        0.65      0.65      0.76      0.85         0.01
  HS02004802HS02004478        0.60      0.60      0.67      0.12         0.01
  HS02004807HS02004802        0.64      0.64      0.66      0.26         0.27
  HS02004817HS02004807        0.64      0.64      1.20      0.01         0.01
  HS02004817HS02004824        0.50      0.50      1.20      0.01         0.01
  HS02004824HS02004830        0.48      0.48      0.50      0.01         0.01
  HS02004830HS02004837        0.44      0.44      0.48      0.01         0.01
  HS02004837HS02004842        0.44      0.44      0.57      0.01         0.01
  HS02004842HS02004848        0.39      0.39      0.57      0.01         0.01
  HS02004848HS02004852        0.39      0.39      0.42      0.03         0.01
  HS02004852HS02004856        0.42      0.42      0.44      0.03         0.01
  HS02004856HS02004862        0.41      0.41      0.44      0.01         0.01
  HS02004862HS02004870        0.44      0.44      0.46      0.23         0.22
  HS02004870HS02004876        0.46      0.46      0.52      0.01         0.01
  HS02004876HS02004881        0.50      0.52      0.50      1.42         0.50
  HS02004881HS02006253        0.50      0.50      1.55      0.01         0.01
  HS02004901HS02004770        0.56      0.56      0.56      0.01         0.01
  WS02003072WS02003073        0.01      0.01      0.01      2.42         0.01
  WS02004401WS02004402        1.48      1.48      1.52      1.24         1.23
  WS02004402WS02004403        1.52      1.52      1.53      1.46         1.46
  WS02004403WS02004404        1.53      1.53      1.69      0.01         0.02
  WS02004404WS02004405        1.65      1.69      1.65      2.78         1.65
  WS02004405WS02004406        1.61      1.65      1.61      1.85         1.61
  WS02004406WS02004407        0.01      0.01      1.61      0.01         0.01
  WS02004407WS02004409        0.01      0.01      0.98      0.01         0.01
  WS02004409WS02004410        0.96      0.98      0.96      1.32         0.96
  WS02004410WS02004411        0.86      0.96      0.86      1.38         0.86
  WS02004411WS02004412        0.77      0.86      0.77      1.42         0.77
  WS02004412WS02004413        0.77      0.77      1.18      0.01         0.01
  WS02004413WS02003067        0.01      0.01      1.18      0.01         0.01
  WS02006109WS02006110        1.80      1.80      2.27      1.81         0.01
  WS02006110WS02006113        1.15      1.15      2.26      0.26         0.01
  WS02006111WS02006112        1.14      1.14      2.37      0.01         0.01
  WS02006112WS02006115        1.33      1.33      1.87      0.01         0.01
  WS02006113WS02006111        1.14      1.15      1.14      1.21         1.14
  WS02006115WS02006116        1.35      1.35      1.35      1.31         1.31
  WS02006116WS02004401        1.47      1.47      1.48      1.39         1.39
  WS02006228WS02006109        2.24      2.27      2.24      2.46         2.24
  WS02006229WS02006228        2.23      2.25      2.23      2.35         2.23
  WS02006230WS02006229        2.30      2.31      2.30      2.45         1.10
  WS02006231WS02006230        1.69      1.69      1.72      2.23         1.04
  WS02006232WS02006231        1.71      1.71      1.95      0.01         0.15
  WS02006234WS02006232        1.74      1.74      1.95      0.01         0.01
  WS02006235WS02006234        1.71      1.71      1.75      2.05         0.99
  WS02006238WS02006235        1.76      1.77      1.85      0.01         0.31
  WS02006239WS02006238        1.77      1.78      1.79      1.28         0.38
  WS02006240WS02006239        1.69      1.70      1.70      1.24         0.33
  WS02006242WS02006240        1.68      1.68      1.83      1.59         0.83
  WS02006243WS02006242        1.67      1.67      1.77      0.01         0.01
  WS02006245WS02006243        1.65      1.65      1.66      0.34         0.28
  WS02006247WS02006245        1.64      1.66      1.64      1.87         0.58
  WS02006248WS02006247        1.62      1.62      1.65      0.01         0.01
  WS02006249WS02006248        1.60      1.60      1.63      0.89         0.01
  WS02006251WS02006249        1.61      1.62      1.63      1.52         1.41
  WS02006252WS02006251        1.72      1.73      1.76      1.14         0.07
  WS02006253WS02006251        1.61      1.61      1.63      0.77         0.01
  WS02006256WS02006235        2.58      2.59      6.89      0.22         0.01
  WS02006280WS02006229        0.78      0.78      0.89      0.01         0.01
  WS02006284WS02006280        0.68      0.68      0.76      0.01         0.01
  WS02006287WS02006284        0.58      0.58      0.69      0.30         0.30
  YS02001580YS02001583        0.56      0.56      0.58      0.01         0.01
  YS02001583YS02001586        0.57      0.57      0.65      0.01         0.01
  YS02001586YS02001590        0.65      0.65      0.72      0.01         0.01
  YS02001590YS02001593        0.72      0.72      0.74      0.75         0.01
  YS02001593YS02001596        0.73      0.73      0.83      0.01         0.01
  YS02001596YS02001600        0.89      0.89      0.99      0.01         0.01
  YS02001600YS02001601        1.06      1.06      1.33      0.01         0.01
  YS02001601YS02001602        1.22      1.22      1.37      1.00         0.01
  YS02001602YS02001605        1.16      1.16      1.22      2.23         0.01
  YS02001605YS02001607        1.12      1.16      1.12      1.29         1.12
  YS02001607YS02001610        0.69      0.69      0.71      0.01         0.01
  YS02001610YS02001613        0.68      0.68      0.71      0.01         0.01
  YS02001613YS02001616        0.64      0.64      0.68      0.01         0.01
  YS02001616YS02001619        0.63      0.63      0.64      0.01         0.03
  YS02001619YS02001622        0.63      0.63      0.63      0.75         0.60
  YS02001622YS02001625        0.63      0.63      0.80      0.01         0.01
  YS02001625YS02001629        0.58      0.58      0.80      0.01         0.01
  YS02001629YS02163301        0.79      0.79      0.80      0.24         0.22
  YS02001633YS02163601        0.82      0.82      0.85      0.36         0.36
  YS02001641YS02001644        0.71      0.74      0.71      1.42         0.70
  YS02001644YS02001647        0.49      0.49      0.71      0.04         0.01
  YS02001647YS02001649        0.49      0.49      0.58      0.01         0.01
  YS02001649YS02001757        0.58      0.58      0.63      0.15         0.12
  YS02001652YS02001649        0.44      0.44      0.58      0.01         0.01
  YS02001655YS02001652        0.30      0.30      0.42      0.01         0.01
  YS02001658YS02001655        0.19      0.19      0.30      0.01         0.01
  YS02001661YS02001658        0.04      0.04      0.19      0.01         0.01
  YS02001664YS02001661        0.01      0.01      0.08      0.01         0.01
  YS02001745YS02001748        0.01      0.01      0.13      0.01         0.01
  YS02001748YS02001751        0.16      0.16      0.22      0.01         0.01
  YS02001751YS02001754        0.22      0.22      0.33      0.01         0.01
  YS02001754YS02001757        0.37      0.37      0.63      0.01         0.01
  YS02001757CaochengTiaoxuchi        0.58      0.63      1.17      0.36         0.26
  YS02001759YS02001757        0.55      0.55      0.63      0.01         0.02
  YS02001762YS02001759        0.51      0.51      0.55      0.01         0.02
  YS02001765YS02001762        0.48      0.48      0.51      0.01         0.01
  YS02001767YS02001765        0.45      0.45      0.48      0.01         0.03
  YS02001770YS02001767        0.45      0.45      0.45      0.47         0.33
  YS02001774YS02001770        0.43      0.43      0.50      0.01         0.01
  YS02001779YS02001774        0.33      0.33      0.50      0.01         0.01
  YS02001783YS02001784        0.43      0.45      0.43      0.61         0.43
  YS02001784YS02001785        0.33      0.43      0.33      0.83         0.33
  YS02001786YS02001788        0.01      0.33      0.01      0.71         0.01
  YS02001790YS02001791        0.01      0.01      0.01      0.41         0.01
  YS02001793JiankangQianchi        0.01      0.01      6.53      0.01         0.01
  YS02001882YS02001884        0.40      0.40      0.41      0.01         0.01
  YS02001884YS02001887        0.43      0.43      0.44      0.01         0.01
  YS02001887YS02001890        0.45      0.45      0.47      0.10         0.01
  YS02001890YS02001895        0.39      0.39      0.48      0.01         0.01
  YS02001895YS02001898        0.38      0.38      0.39      0.01         0.01
  YS02001898YS02001901        0.39      0.39      0.43      0.01         0.01
  YS02001901YS02001904        0.42      0.42      0.43      0.01         0.01
  YS02001904YS02001907        0.42      0.42      0.70      0.01         0.01
  YS02001907YS02006553        0.84      0.84      0.91      0.01         0.01
  YS02001910YS02001907        0.48      0.48      0.68      0.01         0.01
  YS02001915YS02001910        0.40      0.40      0.48      0.01         0.01
  YS02001918YS02001915        0.32      0.32      0.40      0.01         0.01
  YS02001920YS02001918        0.32      0.32      0.33      0.01         0.01
  YS02001923YS02001920        0.28      0.28      0.33      0.01         0.01
  YS02001926YS02001923        0.09      0.09      0.11      0.01         0.01
  YS02001929YS02001926        0.01      0.01      0.11      0.01         0.01
  YS02006553YS02006556        0.57      0.57      0.70      0.01         0.01
  YS02006556YS02006558        0.63      0.63      0.72      0.01         0.01
  YS02006558YS02006561        0.35      0.55      0.35      0.79         0.35
  YS02006561YS02001783        0.28      0.28      0.45      0.01         0.01
  YS02163301YS02001633        0.80      0.80      0.84      0.01         0.01
  YS02163601YS02164001        0.75      0.75      0.85      0.12         0.01
  YS02164001YS02001641        0.74      0.75      0.74      0.67         0.56
  YSB1154YSB6556              0.72      0.72      0.87      0.01         0.01
  YSB1171HS02004479           0.61      0.61      0.88      0.01         0.01
  YSB1174YSB1171              0.79      0.79      1.13      0.01         0.01
  YSB6556YSB1171              0.72      0.72      1.27      0.01         0.01
  
  
  ***************
  Pumping Summary
  ***************
  
  ---------------------------------------------------------------------------------------------------------
                                                  Min       Avg       Max     Total     Power    % Time Off
                        Percent   Number of      Flow      Flow      Flow    Volume     Usage    Pump Curve
  Pump                 Utilized   Start-Ups       LPS       LPS       LPS  10^6 ltr     Kw-hr    Low   High
  ---------------------------------------------------------------------------------------------------------
  CC-R1                   30.29          34      0.00    683.00    683.00     5.959    105.53    0.0   51.9
  CC-R2                   13.01          30      0.00    683.00    683.00     2.559     46.65    0.0   33.7
  CC-S1                   20.24          16      0.00    200.00    200.00     1.166      7.83    0.0    0.0
  CC-S2                   18.97          28      0.00    200.00    200.00     1.093      7.32    0.0    0.0
  JK-R1                    1.28           3      0.00   1000.00   1000.00     0.370      4.50    0.0    0.0
  JK-R2                   10.42          21      0.00   1000.00   1000.00     3.000     28.00    0.0    0.0
  JK-S                     4.68          35      0.00    300.00    300.00     0.404      6.44    0.0    0.0
  XR-1                    97.91           2      0.00     95.00     95.00     2.679      9.61    0.0    0.0
  XR-2                    93.94           2      0.00     95.00     95.00     2.570      8.77    0.0    0.0
  XR-3                     0.00           1      0.00     95.00     95.00     0.000      0.00    0.0    0.0
  XR-4                     0.00           1      0.00     95.00     95.00     0.000      0.00    0.0    0.0
  

  Analysis begun on:  Fri Jun 30 17:26:45 2023
  Analysis ended on:  Fri Jun 30 17:27:05 2023
  Total elapsed time: 00:00:20