
  OWA STORM WATER MANAGEMENT MODEL - VERSION v5.1.14 (OWA 2022-07-31)
  --------------------------------------------------------------

  WARNING 04: minimum elevation drop used for Conduit WS02004404WS02004405
  WARNING 03: negative offset ignored for Link YS02001904YS02001907
  
  *********************************************************
  NOTE: The summary statistics displayed in this report are
  based on results found at every computational time step,  
  not just on results from each reporting time step.
  *********************************************************
  
  ****************
  Analysis Options
  ****************
  Flow Units ............... LPS
  Process Models:
    Rainfall/Runoff ........ YES
    RDII ................... NO
    Snowmelt ............... NO
    Groundwater ............ NO
    Flow Routing ........... YES
    Ponding Allowed ........ NO
    Water Quality .......... NO
  Infiltration Method ...... HORTON
  Flow Routing Method ...... DYNWAVE
  Surcharge Method ......... EXTRAN
  Starting Date ............ 08/28/2015 08:00:00
  Ending Date .............. 08/28/2015 16:00:00
  Antecedent Dry Days ...... 8.0
  Report Time Step ......... 00:01:00
  Wet Time Step ............ 00:01:00
  Dry Time Step ............ 00:01:00
  Routing Time Step ........ 30.00 sec
  Variable Time Step ....... YES
  Maximum Trials ........... 8
  Number of Threads ........ 1
  Head Tolerance ........... 0.001500 m
  
  
  **************************        Volume         Depth
  Runoff Quantity Continuity     hectare-m            mm
  **************************     ---------       -------
  Initial LID Storage ......         0.072         1.184
  Total Precipitation ......         2.950        48.704
  Evaporation Loss .........         0.000         0.000
  Infiltration Loss ........         0.198         3.263
  Surface Runoff ...........         2.208        36.451
  Final Storage ............         0.617        10.187
  Continuity Error (%) .....        -0.025
  
  
  **************************        Volume        Volume
  Flow Routing Continuity        hectare-m      10^6 ltr
  **************************     ---------     ---------
  Dry Weather Inflow .......         0.630         6.296
  Wet Weather Inflow .......         2.208        22.083
  Groundwater Inflow .......         0.000         0.000
  RDII Inflow ..............         0.000         0.000
  External Inflow ..........         0.105         1.045
  External Outflow .........         2.076        20.762
  Flooding Loss ............         0.768         7.678
  Evaporation Loss .........         0.000         0.000
  Exfiltration Loss ........         0.000         0.000
  Initial Stored Volume ....         0.303         3.031
  Final Stored Volume ......         0.408         4.081
  Continuity Error (%) .....        -0.206
  
  
  *************************
  Highest Continuity Errors
  *************************
  Node YS02001583 (-5.00%)
  Node YS02001884 (4.91%)
  Node HS02004842 (1.91%)
  Node YS02001774 (1.54%)
  Node HS02004817 (1.43%)
  
  
  ***************************
  Time-Step Critical Elements
  ***************************
  Link WS02006252WS02006251 (66.21%)
  Link WS02006280WS02006229 (11.94%)
  Link WS02006238WS02006235 (10.16%)
  Link WS02004404WS02004405 (2.38%)
  Link WS02003066WSF200 (1.99%)
  
  
  ********************************
  Highest Flow Instability Indexes
  ********************************
  Link WS02006113WS02006111 (45)
  Link WS02006111WS02006112 (15)
  Link WS02006256WS02006235 (12)
  Link WS02006252WS02006251 (11)
  Link WS02004404WS02004405 (10)
  
  
  *************************
  Routing Time Step Summary
  *************************
  Minimum Time Step           :     0.02 sec
  Average Time Step           :     1.40 sec
  Maximum Time Step           :     6.46 sec
  Percent in Steady State     :    -0.00
  Average Iterations per Step :     2.76
  Percent Not Converging      :     9.01
  
  
  ***************************
  Subcatchment Runoff Summary
  ***************************
  
  ------------------------------------------------------------------------------------------------------------------------------
                            Total      Total      Total      Total     Imperv       Perv      Total       Total     Peak  Runoff
                           Precip      Runon       Evap      Infil     Runoff     Runoff     Runoff      Runoff   Runoff   Coeff
  Subcatchment                 mm         mm         mm         mm         mm         mm         mm    10^6 ltr      LPS
  ------------------------------------------------------------------------------------------------------------------------------
  sub0                      48.70       0.00       0.00       0.97      44.04       2.44      46.48        0.04    27.59   0.954
  sub1                      48.70       0.00       0.00       1.46      37.74       3.34      41.07        0.27   170.76   0.843
  sub10                     48.70       0.00       0.00       0.93      35.37       2.23      37.60        0.41   267.12   0.772
  sub11                     48.70       0.00       0.00       0.85      32.87       2.09      34.96        0.41   278.04   0.718
  sub12                     48.70       0.00       0.00       1.49      33.42       3.64      37.07        0.32   236.32   0.761
  sub14                     48.70       0.00       0.00       0.93      31.13       2.24      33.37        0.32   214.28   0.685
  sub15                     48.70       0.00       0.00       4.22      27.99       8.12      36.11        0.62   379.54   0.741
  sub16                     48.70       0.00       0.00       4.48      27.30       9.36      36.66        0.38   256.75   0.753
  sub17                     48.70       0.00       0.00       4.80      30.13       9.79      39.92        0.34   222.37   0.820
  sub2                      48.70       0.00       0.00       6.66      27.58      10.03      37.61        0.35   178.56   0.772
  sub22                     48.70       0.00       0.00       7.49      26.12      12.79      38.92        2.46  1397.90   0.799
  sub23                     48.70       0.00       0.00       5.63      26.90      10.63      37.53        1.79  1097.34   0.771
  sub3                      48.70       0.00       0.00       7.12      27.30       9.42      36.73        0.83   384.68   0.754
  sub4                      48.70       0.00       0.00       1.60      37.14       3.14      40.28        0.84   417.69   0.827
  sub5                      48.70       0.00       0.00       0.83      36.51       2.00      38.51        0.44   275.90   0.791
  sub60                     48.70       0.00       0.00       1.33      32.15       3.18      35.33        0.46   321.14   0.725
  sub61                     48.70       0.00       0.00       2.04      32.12       4.73      36.85        0.68   467.73   0.757
  sub62                     48.70       0.00       0.00       0.90      34.24       2.16      36.40        1.00   639.04   0.747
  sub63                     48.70       0.00       0.00       3.75      27.51       7.81      35.32        0.80   525.06   0.725
  sub64                     48.70       0.00       0.00       1.80      31.32       3.89      35.21        0.85   522.20   0.723
  sub65                     48.70       0.00       0.00       1.65      33.80       3.55      37.35        1.03   610.27   0.767
  sub66                     48.70       0.00       0.00       4.39      26.59       6.81      33.40        1.56   783.46   0.686
  sub67                     48.70       0.00       0.00       0.90      35.11       2.24      37.35        0.69   499.58   0.767
  sub68                     48.70       0.00       0.00       1.57      31.00       3.63      34.63        0.95   636.22   0.711
  sub69                     48.70       0.00       0.00       1.42      32.73       4.37      37.10        1.37   790.48   0.762
  sub7                      48.70       0.00       0.00       0.98      33.37       2.41      35.78        0.12    84.01   0.735
  sub70                     48.70       0.00       0.00       4.80      26.21       8.76      34.96        1.01   453.48   0.718
  sub71                     48.70       0.00       0.00       0.83      31.10       1.95      33.05        0.86   529.00   0.679
  sub72                     48.70       0.00       0.00       0.80      33.59       1.81      35.40        0.49   272.27   0.727
  sub8                      48.70       0.00       0.00       0.96      32.43       2.34      34.76        0.22   150.68   0.714
  sub9                      48.70       0.00       0.00       0.93      31.43       2.27      33.70        0.16   109.76   0.692
  

  ***********************
  LID Performance Summary
  ***********************

  --------------------------------------------------------------------------------------------------------------------
                                         Total      Evap     Infil   Surface    Drain    Initial     Final  Continuity
                                        Inflow      Loss      Loss   Outflow   Outflow   Storage   Storage       Error
  Subcatchment      LID Control             mm        mm        mm        mm        mm        mm        mm           %
  --------------------------------------------------------------------------------------------------------------------
  sub1              GreenRoof            48.70      0.00      0.00      0.00      0.00      7.05     55.78       -0.05
  sub10             GreenRoof            48.70      0.00      0.00      0.00      0.00      7.05     55.78       -0.05
  sub11             GreenRoof            48.70      0.00      0.00      0.00      0.00      7.05     55.78       -0.05
  sub12             GreenRoof            48.70      0.00      0.00      0.00      0.00      7.05     55.78       -0.05
  sub14             GreenRoof            48.70      0.00      0.00      0.00      0.00      7.05     55.78       -0.05
  sub15             GreenRoof            48.70      0.00      0.00      0.00      0.00      7.05     55.78       -0.05
  sub16             GreenRoof            48.70      0.00      0.00      0.00      0.00      7.05     55.78       -0.05
  sub17             GreenRoof            48.70      0.00      0.00      0.00      0.00      7.05     55.78       -0.05
  sub2              GreenRoof            48.70      0.00      0.00      0.00      0.00      7.05     55.78       -0.05
  sub22             GreenRoof            48.70      0.00      0.00      0.00      0.00      7.05     55.78       -0.05
  sub23             GreenRoof            48.70      0.00      0.00      0.00      0.00      7.05     55.78       -0.05
  sub3              GreenRoof            48.70      0.00      0.00      0.00      0.00      7.05     55.78       -0.05
  sub4              GreenRoof            48.70      0.00      0.00      0.00      0.00      7.05     55.78       -0.05
  sub5              GreenRoof            48.70      0.00      0.00      0.00      0.00      7.05     55.78       -0.05
  sub60             GreenRoof            48.70      0.00      0.00      0.00      0.00      7.05     55.78       -0.05
  sub61             GreenRoof            48.70      0.00      0.00      0.00      0.00      7.05     55.78       -0.05
  sub62             GreenRoof            48.70      0.00      0.00      0.00      0.00      7.05     55.78       -0.05
  sub63             GreenRoof            48.70      0.00      0.00      0.00      0.00      7.05     55.78       -0.05
  sub64             GreenRoof            48.70      0.00      0.00      0.00      0.00      7.05     55.78       -0.05
  sub65             GreenRoof            48.70      0.00      0.00      0.00      0.00      7.05     55.78       -0.05
  sub66             GreenRoof            48.70      0.00      0.00      0.00      0.00      7.05     55.78       -0.05
  sub67             GreenRoof            48.70      0.00      0.00      0.00      0.00      7.05     55.78       -0.05
  sub68             GreenRoof            48.70      0.00      0.00      0.00      0.00      7.05     55.78       -0.05
  sub69             GreenRoof            48.70      0.00      0.00      0.00      0.00      7.05     55.78       -0.05
  sub7              GreenRoof            48.70      0.00      0.00      0.00      0.00      7.05     55.78       -0.05
  sub70             GreenRoof            48.70      0.00      0.00      0.00      0.00      7.05     55.78       -0.05
  sub71             GreenRoof            48.70      0.00      0.00      0.00      0.00      7.05     55.78       -0.05
  sub72             GreenRoof            48.70      0.00      0.00      0.00      0.00      7.05     55.78       -0.05
  sub8              GreenRoof            48.70      0.00      0.00      0.00      0.00      7.05     55.78       -0.05
  sub9              GreenRoof            48.70      0.00      0.00      0.00      0.00      7.05     55.78       -0.05
  
  ******************
  Node Depth Summary
  ******************
  
  ---------------------------------------------------------------------------------
                                 Average  Maximum  Maximum  Time of Max    Reported
                                   Depth    Depth      HGL   Occurrence   Max Depth
  Node                 Type       Meters   Meters   Meters  days hr:min      Meters
  ---------------------------------------------------------------------------------
  HS02004478           JUNCTION     0.12     1.59    10.82     0  02:11        1.52
  HS02004479           JUNCTION     0.18     1.70    10.90     0  02:11        1.65
  HS02004480           JUNCTION     0.15     1.68    10.92     0  02:11        1.63
  HS02004770           JUNCTION     0.17     1.42    11.25     0  02:08        1.42
  HS02004777           JUNCTION     0.20     1.48    11.28     0  02:08        1.45
  HS02004785           JUNCTION     0.10     1.49    11.39     0  02:08        1.36
  HS02004788           JUNCTION     0.07     1.42    11.32     0  02:08        1.36
  HS02004792           JUNCTION     0.10     1.60    11.12     0  02:08        1.60
  HS02004799           JUNCTION     0.20     1.76    10.97     0  02:11        1.76
  HS02004802           JUNCTION     0.22     1.80    10.93     0  02:11        1.68
  HS02004807           JUNCTION     0.19     1.92    11.09     0  02:11        1.72
  HS02004817           JUNCTION     0.50     2.40    11.25     0  02:11        2.09
  HS02004824           JUNCTION     0.08     1.98    11.39     0  02:11        1.58
  HS02004830           JUNCTION     0.09     2.01    11.48     0  02:11        1.54
  HS02004837           JUNCTION     0.07     1.94    11.52     0  02:11        1.45
  HS02004842           JUNCTION     0.37     2.22    11.49     0  02:11        1.76
  HS02004848           JUNCTION     0.05     2.01    11.61     0  02:11        1.43
  HS02004852           JUNCTION     0.05     2.07    11.58     0  02:11        1.47
  HS02004856           JUNCTION     0.11     2.07    11.50     0  02:11        1.50
  HS02004862           JUNCTION     0.06     2.00    11.38     0  02:11        1.48
  HS02004870           JUNCTION     0.05     1.95    11.24     0  02:11        1.47
  HS02004876           JUNCTION     0.09     2.00    11.03     0  02:11        1.59
  HS02004881           JUNCTION     0.04     1.72    10.75     0  02:11        1.41
  HS02004901           JUNCTION     0.18     1.42    11.24     0  02:08        1.42
  WS02001211           JUNCTION     0.62     0.80     5.64     0  02:17        0.80
  WS02001212           JUNCTION     0.36     0.57     5.63     0  02:17        0.56
  WS02001213           JUNCTION     0.58     0.86     5.62     0  02:17        0.86
  WS02003059           JUNCTION     0.64     0.93     5.62     0  02:17        0.93
  WS02003060           JUNCTION     0.36     0.68     5.61     0  02:16        0.68
  WS02003066           JUNCTION     0.22     0.45     6.00     0  02:14        0.45
  WS02003067           JUNCTION     0.54     0.88     6.20     0  02:13        0.88
  WS02003069           JUNCTION     0.41     0.77     5.35     0  02:16        0.77
  WS02003072           JUNCTION     0.47     0.80     5.18     0  02:17        0.80
  WS02003073           JUNCTION     0.28     0.51     4.57     0  02:17        0.51
  WS02004138           JUNCTION     0.13     0.14     7.39     0  00:29        0.14
  WS02004139           JUNCTION     0.56     0.74     5.65     0  02:16        0.74
  WS02004401           JUNCTION     0.68     1.81     7.81     0  02:16        1.81
  WS02004402           JUNCTION     0.71     1.76     7.72     0  02:16        1.75
  WS02004403           JUNCTION     0.72     1.69     7.62     0  02:16        1.67
  WS02004404           JUNCTION     0.79     1.69     7.54     0  02:16        1.68
  WS02004405           JUNCTION     0.79     1.64     7.49     0  02:16        1.63
  WS02004406           JUNCTION     0.79     1.53     7.36     0  02:13        1.52
  WS02004407           JUNCTION     0.22     0.88     7.19     0  02:14        0.88
  WS02004409           JUNCTION     0.47     1.36     7.13     0  02:14        1.35
  WS02004410           JUNCTION     0.49     1.29     7.01     0  02:16        1.29
  WS02004411           JUNCTION     0.50     1.18     6.86     0  02:12        1.18
  WS02004412           JUNCTION     0.52     1.09     6.73     0  02:13        1.09
  WS02004413           JUNCTION     0.67     1.14     6.61     0  02:14        1.13
  WS02006109           JUNCTION     0.80     2.64     9.26     0  02:08        2.64
  WS02006110           JUNCTION     0.78     2.37     8.96     0  02:18        2.37
  WS02006111           JUNCTION     0.29     1.70     8.41     0  02:12        1.70
  WS02006112           JUNCTION     0.86     2.33     8.22     0  02:12        2.33
  WS02006113           JUNCTION     0.38     1.80     8.69     0  02:12        1.80
  WS02006115           JUNCTION     0.58     1.92     8.06     0  02:12        1.92
  WS02006116           JUNCTION     0.66     1.90     7.94     0  02:12        1.90
  WS02006228           JUNCTION     0.82     3.03     9.68     0  02:11        3.03
  WS02006229           JUNCTION     0.80     3.25     9.94     0  02:11        3.20
  WS02006230           JUNCTION     0.76     2.65     9.39     0  02:05        2.65
  WS02006231           JUNCTION     0.53     2.24     9.36     0  02:29        2.24
  WS02006232           JUNCTION     0.64     2.18     9.22     0  02:05        2.18
  WS02006234           JUNCTION     0.53     1.96     9.12     0  02:05        1.96
  WS02006235           JUNCTION     0.55     2.00     9.16     0  02:40        1.98
  WS02006238           JUNCTION     0.58     2.04     9.18     0  02:40        1.95
  WS02006239           JUNCTION     0.53     1.90     9.10     0  02:40        1.84
  WS02006240           JUNCTION     0.49     1.75     9.04     0  02:55        1.69
  WS02006242           JUNCTION     0.55     1.55     8.82     0  02:02        1.55
  WS02006243           JUNCTION     0.44     1.48     8.90     0  02:29        1.48
  WS02006245           JUNCTION     0.43     1.33     8.81     0  03:00        1.28
  WS02006247           JUNCTION     0.45     1.29     8.79     0  03:00        1.26
  WS02006248           JUNCTION     0.40     1.10     8.69     0  01:59        1.10
  WS02006249           JUNCTION     0.44     1.09     8.69     0  01:59        1.09
  WS02006251           JUNCTION     0.47     2.21     9.88     0  02:05        2.08
  WS02006252           JUNCTION     0.36     1.50     9.74     0  00:00        1.50
  WS02006253           JUNCTION     0.51     2.96    10.60     0  02:11        2.71
  WS02006256           JUNCTION     0.80     2.35     9.28     0  00:00        2.35
  WS02006280           JUNCTION     0.16     1.77    10.04     0  02:11        1.71
  WS02006284           JUNCTION     0.44     1.98    10.37     0  02:11        1.93
  WS02006287           JUNCTION     0.17     1.76    10.71     0  02:11        1.68
  WSF200               JUNCTION     0.21     0.51     5.75     0  02:15        0.51
  YS02001580           JUNCTION     0.03     1.05     9.59     0  02:08        0.78
  YS02001583           JUNCTION     0.07     1.03     9.52     0  02:08        0.82
  YS02001586           JUNCTION     0.10     1.13     9.30     0  02:08        1.13
  YS02001590           JUNCTION     0.17     1.39     9.25     0  02:08        1.39
  YS02001593           JUNCTION     0.11     1.35     9.21     0  02:24        1.35
  YS02001596           JUNCTION     0.15     1.72     9.14     0  02:24        1.72
  YS02001600           JUNCTION     0.19     1.87     9.00     0  02:24        1.87
  YS02001601           JUNCTION     0.36     2.06     8.90     0  02:08        2.06
  YS02001602           JUNCTION     0.29     1.87     8.77     0  02:08        1.87
  YS02001605           JUNCTION     0.27     1.78     8.68     0  02:11        1.78
  YS02001607           JUNCTION     0.30     1.68     8.53     0  02:29        1.68
  YS02001610           JUNCTION     0.34     1.68     8.48     0  02:10        1.68
  YS02001613           JUNCTION     0.30     1.70     8.54     0  02:29        1.70
  YS02001616           JUNCTION     0.23     1.61     8.52     0  02:29        1.61
  YS02001619           JUNCTION     0.21     1.61     8.54     0  02:12        1.61
  YS02001622           JUNCTION     0.21     1.62     8.52     0  02:29        1.62
  YS02001625           JUNCTION     0.48     1.78     8.38     0  02:10        1.78
  YS02001629           JUNCTION     0.33     1.85     8.40     0  02:11        1.85
  YS02001633           JUNCTION     0.41     2.08     8.53     0  02:12        2.08
  YS02001641           JUNCTION     0.41     2.10     8.54     0  02:12        2.10
  YS02001644           JUNCTION     0.41     1.92     8.35     0  02:12        1.92
  YS02001647           JUNCTION     0.23     1.90     8.51     0  02:29        1.90
  YS02001649           JUNCTION     0.32     2.05     8.44     0  02:29        2.05
  YS02001652           JUNCTION     0.20     2.16     8.76     0  02:29        2.16
  YS02001655           JUNCTION     0.13     1.76     8.61     0  02:12        1.47
  YS02001658           JUNCTION     0.08     1.72     8.86     0  02:12        1.20
  YS02001661           JUNCTION     0.11     1.07     8.47     0  02:13        0.99
  YS02001664           JUNCTION     0.03     0.53     8.45     0  02:13        0.38
  YS02001745           JUNCTION     0.03     0.73     8.24     0  02:12        0.63
  YS02001748           JUNCTION     0.08     1.61     8.69     0  02:12        1.21
  YS02001751           JUNCTION     0.12     1.61     8.49     0  02:12        1.49
  YS02001754           JUNCTION     0.19     1.79     8.40     0  02:13        1.79
  YS02001757           JUNCTION     0.41     2.06     8.32     0  02:29        2.06
  YS02001759           JUNCTION     0.33     1.98     8.34     0  02:13        1.98
  YS02001762           JUNCTION     0.30     1.99     8.39     0  02:13        1.93
  YS02001765           JUNCTION     0.27     1.97     8.42     0  02:13        1.88
  YS02001767           JUNCTION     0.26     1.94     8.43     0  02:13        1.86
  YS02001770           JUNCTION     0.26     1.93     8.43     0  02:13        1.90
  YS02001774           JUNCTION     0.33     1.99     8.41     0  02:13        1.97
  YS02001779           JUNCTION     0.16     1.68     8.37     0  02:11        1.68
  YS02001783           JUNCTION     0.14     2.40     8.54     0  02:06        1.41
  YS02001784           JUNCTION     0.16     2.11     8.18     0  02:06        1.37
  YS02001786           JUNCTION     0.14     1.74     7.77     0  02:06        1.19
  YS02001788           JUNCTION     0.10     1.62     7.60     0  02:06        1.01
  YS02001790           JUNCTION     0.13     1.72     7.36     0  02:05        1.17
  YS02001791           JUNCTION     0.10     1.89     7.36     0  02:05        1.29
  YS02001793           JUNCTION     0.09     2.01     6.85     0  02:05        1.88
  YS02001882           JUNCTION     0.19     1.83     8.55     0  02:11        1.83
  YS02001884           JUNCTION     0.28     1.93     8.55     0  02:11        1.93
  YS02001887           JUNCTION     0.36     1.96     8.50     0  02:11        1.96
  YS02001890           JUNCTION     0.39     1.81     8.32     0  02:11        1.81
  YS02001895           JUNCTION     0.16     1.58     8.32     0  02:12        1.58
  YS02001898           JUNCTION     0.17     1.59     8.32     0  02:12        1.59
  YS02001901           JUNCTION     0.28     1.69     8.30     0  02:12        1.69
  YS02001904           JUNCTION     0.26     1.65     8.28     0  02:12        1.65
  YS02001907           JUNCTION     0.59     1.96     8.25     0  02:11        1.96
  YS02001910           JUNCTION     0.38     1.96     8.46     0  02:12        1.81
  YS02001915           JUNCTION     0.18     1.90     8.62     0  02:12        1.66
  YS02001918           JUNCTION     0.08     1.81     8.88     0  02:12        1.39
  YS02001920           JUNCTION     0.16     2.14     9.15     0  02:12        1.47
  YS02001923           JUNCTION     0.05     2.03     9.29     0  02:12        1.14
  YS02001926           JUNCTION     0.09     1.90     9.35     0  02:12        1.29
  YS02001929           JUNCTION     0.04     1.78     9.47     0  02:12        0.88
  YS02006553           JUNCTION     0.59     1.98     8.26     0  02:11        1.96
  YS02006556           JUNCTION     0.56     1.97     8.28     0  02:11        1.94
  YS02006558           JUNCTION     0.61     2.01     8.28     0  02:11        1.98
  YS02006561           JUNCTION     0.09     1.14     7.80     0  02:10        1.03
  YS02163301           JUNCTION     0.35     1.96     8.48     0  02:12        1.96
  YS02163601           JUNCTION     0.46     2.08     8.48     0  02:12        2.08
  YS02164001           JUNCTION     0.40     2.10     8.56     0  02:12        2.10
  YSB1154              JUNCTION     0.32     1.93    10.98     0  02:11        1.93
  YSB1171              JUNCTION     0.47     1.95    10.85     0  02:11        1.95
  YSB1174              JUNCTION     0.27     1.81    10.92     0  02:11        1.81
  YSB6556              JUNCTION     0.22     1.75    10.92     0  02:11        1.75
  CC-1                 OUTFALL      0.00     0.00     0.00     0  00:00        0.00
  CC-2                 OUTFALL      0.00     0.00     0.00     0  00:00        0.00
  JK-1                 OUTFALL      0.00     0.00     0.00     0  00:00        0.00
  JK-2                 OUTFALL      0.00     0.00     0.00     0  00:00        0.00
  WSC                  OUTFALL      0.28     0.51     1.18     0  02:18        0.51
  CC-storage           STORAGE      1.09     2.02     7.52     0  02:45        2.02
  JK-storage           STORAGE      2.90     5.80     6.60     0  02:05        5.80
  XR-storage           STORAGE      8.12     9.26     7.26     0  08:00        9.26
  
  
  *******************
  Node Inflow Summary
  *******************
  
  -------------------------------------------------------------------------------------------------
                                  Maximum  Maximum                  Lateral       Total        Flow
                                  Lateral    Total  Time of Max      Inflow      Inflow     Balance
                                   Inflow   Inflow   Occurrence      Volume      Volume       Error
  Node                 Type           LPS      LPS  days hr:min    10^6 ltr    10^6 ltr     Percent
  -------------------------------------------------------------------------------------------------
  HS02004478           JUNCTION      0.00  2246.59     0  02:14           0        6.73      -0.011
  HS02004479           JUNCTION      0.00   451.32     0  02:11           0       0.685       0.161
  HS02004480           JUNCTION      0.00  2109.27     0  02:09           0        5.29       0.059
  HS02004770           JUNCTION   1097.34  1097.34     0  02:14        1.79           2       0.159
  HS02004777           JUNCTION      0.03   746.05     0  02:08    0.000864        1.59       0.329
  HS02004785           JUNCTION      0.15   761.35     0  02:08     0.00432        1.59       0.043
  HS02004788           JUNCTION    381.21   851.80     0  02:08       0.669        2.25      -0.006
  HS02004792           JUNCTION   1398.18  2119.55     0  02:14        2.47        4.72       0.015
  HS02004799           JUNCTION    214.28  1776.11     0  02:09       0.318        4.62       0.062
  HS02004802           JUNCTION      0.00   734.89     0  02:14           0        1.48       0.283
  HS02004807           JUNCTION    278.04   733.28     0  02:14       0.406        1.52       0.292
  HS02004817           JUNCTION      0.60   459.96     0  02:14      0.0173        1.18       1.448
  HS02004824           JUNCTION    417.74   657.26     0  02:09       0.842        1.37       0.067
  HS02004830           JUNCTION      0.15   653.68     0  02:09     0.00432       0.746       0.232
  HS02004837           JUNCTION    273.47   836.84     0  02:09       0.598        1.02       0.148
  HS02004842           JUNCTION      0.00   824.60     0  02:09           0       0.693       1.952
  HS02004848           JUNCTION    384.68  1102.33     0  02:11       0.827        1.36       0.055
  HS02004852           JUNCTION      0.00  1073.34     0  02:11           0        1.21       0.042
  HS02004856           JUNCTION    109.76  1171.61     0  02:11       0.162        1.37       0.086
  HS02004862           JUNCTION    178.76  1210.49     0  02:11       0.356        1.73      -0.021
  HS02004870           JUNCTION    150.68  1327.69     0  02:11       0.222        1.95       0.016
  HS02004876           JUNCTION    170.76  1341.08     0  02:11       0.273        2.22       0.059
  HS02004881           JUNCTION     84.01  1415.16     0  02:11       0.121        2.34       0.023
  HS02004901           JUNCTION    256.75   484.66     0  02:15       0.384       0.551       0.339
  WS02001211           JUNCTION      7.35   205.51     0  02:45       0.212        5.44       0.611
  WS02001212           JUNCTION      0.00   213.64     0  02:45           0        5.41       0.290
  WS02001213           JUNCTION      0.00   218.23     0  02:45           0        5.39       0.332
  WS02003059           JUNCTION      0.00   223.25     0  02:44           0        5.38       0.595
  WS02003060           JUNCTION     16.53  1478.64     0  02:16       0.476        14.4       0.103
  WS02003066           JUNCTION      0.00  1275.68     0  02:14           0        8.55       0.017
  WS02003067           JUNCTION      0.00  1275.19     0  02:14           0        8.55       0.052
  WS02003069           JUNCTION      0.32  1478.28     0  02:16     0.00922        14.4       0.107
  WS02003072           JUNCTION      0.00  1477.89     0  02:17           0        14.3       0.146
  WS02003073           JUNCTION      1.82  1479.69     0  02:17      0.0524        14.4       0.152
  WS02004138           JUNCTION      0.00   380.00     0  00:00           0        5.25       0.053
  WS02004139           JUNCTION      0.32   191.59     0  00:29     0.00924        5.26       0.509
  WS02004401           JUNCTION      0.00  1275.76     0  02:13           0        8.66       0.122
  WS02004402           JUNCTION      0.00  1275.82     0  02:13           0        8.65       0.124
  WS02004403           JUNCTION      0.00  1276.53     0  02:13           0        8.64       0.119
  WS02004404           JUNCTION      0.16  1276.70     0  02:12     0.00467        8.63       0.100
  WS02004405           JUNCTION      0.04  1277.78     0  02:12      0.0011        8.62       0.148
  WS02004406           JUNCTION      0.00  1278.22     0  02:12           0        8.61       0.246
  WS02004407           JUNCTION      0.00  1279.24     0  02:12           0        8.59       0.018
  WS02004409           JUNCTION      0.00  1275.13     0  02:14           0        8.59       0.039
  WS02004410           JUNCTION      0.00  1275.32     0  02:14           0        8.58       0.057
  WS02004411           JUNCTION      0.00  1275.37     0  02:14           0        8.58       0.072
  WS02004412           JUNCTION      0.00  1275.30     0  02:14           0        8.57       0.094
  WS02004413           JUNCTION      0.00  1275.44     0  02:14           0        8.57       0.163
  WS02006109           JUNCTION      1.23  1260.83     0  02:14      0.0354        8.47       0.127
  WS02006110           JUNCTION      0.00  1115.05     0  02:23           0        8.36       0.092
  WS02006111           JUNCTION      0.00  1116.19     0  02:24           0        8.35       0.005
  WS02006112           JUNCTION    222.37  1276.47     0  02:13       0.343        8.69       0.211
  WS02006113           JUNCTION      0.00  1114.97     0  02:23           0        8.35       0.030
  WS02006115           JUNCTION      0.00  1275.90     0  02:13           0        8.67       0.080
  WS02006116           JUNCTION      0.00  1276.04     0  02:13           0        8.66       0.071
  WS02006228           JUNCTION      0.00  1259.99     0  02:14           0        8.44       0.062
  WS02006229           JUNCTION      0.00  2248.74     0  02:14           0          10       0.070
  WS02006230           JUNCTION     10.28   998.52     0  02:13       0.296         4.9       0.185
  WS02006231           JUNCTION      0.00   454.04     0  02:24           0        4.05      -0.097
  WS02006232           JUNCTION      0.00   453.68     0  02:29           0        4.04       0.127
  WS02006234           JUNCTION      0.00   453.22     0  02:08           0        4.04      -0.083
  WS02006235           JUNCTION      0.00   418.84     0  02:35           0        3.98       0.107
  WS02006238           JUNCTION      0.00   416.39     0  02:20           0        3.83      -0.171
  WS02006239           JUNCTION      0.00   415.60     0  02:20           0        3.81      -0.432
  WS02006240           JUNCTION      0.00   415.28     0  02:20           0         3.8      -0.011
  WS02006242           JUNCTION      0.00   415.36     0  02:20           0         3.8      -0.012
  WS02006243           JUNCTION      0.00   408.34     0  03:25           0        3.53      -0.173
  WS02006245           JUNCTION      0.00   408.27     0  03:25           0        3.54       0.472
  WS02006247           JUNCTION      0.00   408.25     0  03:25           0        3.54      -0.022
  WS02006248           JUNCTION      0.00   413.26     0  03:37           0        3.71      -0.206
  WS02006249           JUNCTION      0.00  1328.32     0  02:13           0        5.64       0.283
  WS02006251           JUNCTION      0.08  1449.53     0  02:11     0.00222        5.73      -0.040
  WS02006252           JUNCTION      0.00   400.00     0  00:00           0        3.29      -0.087
  WS02006253           JUNCTION     27.59  1444.62     0  02:11      0.0377        2.46       0.057
  WS02006256           JUNCTION      0.00   300.00     0  00:00           0       0.499      -0.217
  WS02006280           JUNCTION      0.00  2247.56     0  02:14           0        6.71       0.012
  WS02006284           JUNCTION      0.10  2247.48     0  02:14     0.00275        6.72       0.005
  WS02006287           JUNCTION      0.00  2248.00     0  02:14           0        6.71       0.013
  WSF200               JUNCTION      0.00  1275.77     0  02:14           0        8.55       0.010
  YS02001580           JUNCTION      0.00   115.76     0  02:08           0     0.00401      -4.296
  YS02001583           JUNCTION      0.00   166.08     0  02:08           0       0.015      -4.766
  YS02001586           JUNCTION    453.48   453.55     0  02:15        1.01        1.02       0.134
  YS02001590           JUNCTION      0.00   318.08     0  02:16           0       0.942       0.015
  YS02001593           JUNCTION      0.00   318.02     0  02:14           0       0.942       0.012
  YS02001596           JUNCTION      0.00   318.03     0  02:12           0       0.941       0.004
  YS02001600           JUNCTION      0.00   318.15     0  02:13           0       0.941      -0.010
  YS02001601           JUNCTION    790.48  1108.08     0  02:14        1.37        2.31       0.035
  YS02001602           JUNCTION      0.00   516.30     0  02:08           0        1.74       0.025
  YS02001605           JUNCTION      0.00   516.39     0  02:08           0        1.67       0.028
  YS02001607           JUNCTION      0.00   515.78     0  02:08           0        1.67       0.107
  YS02001610           JUNCTION      0.00   517.13     0  02:08           0        1.67       0.138
  YS02001613           JUNCTION      0.00   518.33     0  02:07           0         1.5       0.109
  YS02001616           JUNCTION      0.00   516.25     0  02:08           0         1.5       0.026
  YS02001619           JUNCTION    783.46   929.32     0  02:10        1.56        3.06       0.001
  YS02001622           JUNCTION      0.00   928.70     0  02:10           0        3.06      -0.002
  YS02001625           JUNCTION      0.00   929.49     0  02:08           0        3.06       0.430
  YS02001629           JUNCTION      0.00   930.76     0  02:08           0        2.68      -0.064
  YS02001633           JUNCTION    610.47  1363.43     0  02:10        1.03         3.7       0.088
  YS02001641           JUNCTION      0.00  1363.66     0  02:10           0         3.7       0.070
  YS02001644           JUNCTION    522.23  1754.77     0  02:11       0.847        4.54       0.068
  YS02001647           JUNCTION      0.00  1760.02     0  02:11           0        4.51      -0.003
  YS02001649           JUNCTION      0.00  1973.31     0  02:10           0        5.33       0.004
  YS02001652           JUNCTION      0.00   638.02     0  02:14           0       0.813      -0.118
  YS02001655           JUNCTION      0.15   637.51     0  02:14     0.00443        0.81      -0.213
  YS02001658           JUNCTION      0.00   636.56     0  02:14           0       0.811      -0.140
  YS02001661           JUNCTION      0.00   752.16     0  02:14           0        0.81       0.040
  YS02001664           JUNCTION    525.06   525.06     0  02:13       0.802       0.802      -0.017
  YS02001745           JUNCTION    321.14   422.29     0  02:12       0.464       0.466       0.398
  YS02001748           JUNCTION      0.04   574.99     0  02:12      0.0013       0.469      -0.578
  YS02001751           JUNCTION      0.01   375.85     0  02:13    0.000317        0.48       0.095
  YS02001754           JUNCTION      0.26   375.14     0  02:13     0.00749       0.497      -0.343
  YS02001757           JUNCTION      0.00  3047.24     0  02:13           0        7.53       0.012
  YS02001759           JUNCTION    467.77  1111.88     0  02:13       0.677        1.73      -0.004
  YS02001762           JUNCTION      0.00   649.32     0  02:13           0        1.05       0.007
  YS02001765           JUNCTION      0.00   647.51     0  02:13           0        1.05       0.024
  YS02001767           JUNCTION      0.54   646.16     0  02:14      0.0154        1.04      -0.011
  YS02001770           JUNCTION    639.19   642.30     0  02:14           1        1.08      -0.027
  YS02001774           JUNCTION      0.00   391.55     0  02:11           0         0.1       1.569
  YS02001779           JUNCTION      0.01   400.05     0  02:11    0.000144      0.0345      -2.131
  YS02001783           JUNCTION      0.00  1099.13     0  02:22           0        2.73      -0.002
  YS02001784           JUNCTION      1.06  1100.69     0  02:22      0.0305        2.76       0.016
  YS02001786           JUNCTION      0.06  1100.88     0  02:22     0.00162        2.76       0.016
  YS02001788           JUNCTION      0.07  1101.26     0  02:22     0.00204        2.76       0.007
  YS02001790           JUNCTION      0.15  1157.87     0  02:21     0.00446        2.77      -0.010
  YS02001791           JUNCTION      0.00  1185.89     0  02:22           0        2.77       0.018
  YS02001793           JUNCTION      0.00  1217.89     0  02:21           0        2.77      -0.064
  YS02001882           JUNCTION      0.00    87.78     0  02:10           0      0.0128       4.879
  YS02001884           JUNCTION      0.00   120.82     0  02:08           0       0.049       5.159
  YS02001887           JUNCTION    500.03   500.06     0  02:13       0.708       0.742       0.599
  YS02001890           JUNCTION      0.00   500.21     0  02:13           0         0.7       0.729
  YS02001895           JUNCTION      0.00   495.32     0  02:13           0       0.694       0.182
  YS02001898           JUNCTION      0.00   495.43     0  02:13           0       0.692       0.037
  YS02001901           JUNCTION      0.00   496.57     0  02:13           0       0.695       0.483
  YS02001904           JUNCTION      0.00   495.23     0  02:13           0       0.699       0.429
  YS02001907           JUNCTION      0.00  1457.82     0  02:12           0        2.13       0.861
  YS02001910           JUNCTION      0.00   969.61     0  02:12           0        1.44       0.496
  YS02001915           JUNCTION    529.02   968.74     0  02:12       0.865        1.48       0.116
  YS02001918           JUNCTION      0.00   485.89     0  02:10           0       0.646       0.017
  YS02001920           JUNCTION      2.87   451.51     0  02:12      0.0827       0.626       0.106
  YS02001923           JUNCTION      0.04   436.64     0  02:12     0.00109       0.526      -0.173
  YS02001926           JUNCTION      0.05   669.95     0  02:11      0.0015       0.504      -0.244
  YS02001929           JUNCTION    272.27   482.83     0  02:11       0.487        0.49      -0.047
  YS02006553           JUNCTION      0.00   802.29     0  02:24           0         1.8       0.668
  YS02006556           JUNCTION      0.00   795.32     0  02:23           0         1.8       0.466
  YS02006558           JUNCTION    637.10  1094.60     0  02:22       0.978        2.76       0.132
  YS02006561           JUNCTION      0.00  1094.18     0  02:22           0        2.73      -0.004
  YS02163301           JUNCTION      0.00   925.80     0  02:10           0        2.67       0.051
  YS02163601           JUNCTION      0.11  1363.53     0  02:10     0.00317         3.7       0.125
  YS02164001           JUNCTION      0.00  1363.84     0  02:10           0         3.7       0.052
  YSB1154              JUNCTION    275.90   275.90     0  02:14       0.436       0.437       0.348
  YSB1171              JUNCTION      0.00   510.80     0  02:13           0       0.768       0.858
  YSB1174              JUNCTION    236.32   236.32     0  02:13       0.324       0.325       0.405
  YSB6556              JUNCTION      0.00   276.03     0  02:14           0       0.438       0.296
  CC-1                 OUTFALL       0.00   683.00     0  00:00           0        2.95       0.000
  CC-2                 OUTFALL       0.00   683.00     0  00:00           0        1.32       0.000
  JK-1                 OUTFALL       0.00  1000.00     0  00:00           0        1.16       0.000
  JK-2                 OUTFALL       0.00  1000.00     0  00:00           0       0.974       0.000
  WSC                  OUTFALL       0.00  1479.76     0  02:18           0        14.4       0.000
  CC-storage           STORAGE       0.00  3047.21     0  02:13           0        9.72      -0.096
  JK-storage           STORAGE       0.00  1401.20     0  02:25           0        2.92      -0.118
  XR-storage           STORAGE     200.00   200.00     0  00:00        5.76        6.36       0.001
  
  
  **********************
  Node Surcharge Summary
  **********************
  
  Surcharging occurs when water rises above the top of the highest conduit.
  ---------------------------------------------------------------------
                                               Max. Height   Min. Depth
                                   Hours       Above Crown    Below Rim
  Node                 Type      Surcharged         Meters       Meters
  ---------------------------------------------------------------------
  HS02004478           JUNCTION        0.29          0.672        0.268
  HS02004479           JUNCTION        0.41          0.900        0.150
  HS02004480           JUNCTION        0.45          0.971        0.129
  HS02004770           JUNCTION        0.37          0.720        0.000
  HS02004777           JUNCTION        0.38          0.780        0.000
  HS02004785           JUNCTION        0.33          0.790        0.000
  HS02004788           JUNCTION        0.32          0.720        0.000
  HS02004792           JUNCTION        0.43          0.900        0.000
  HS02004799           JUNCTION        0.54          1.060        0.000
  HS02004802           JUNCTION        0.46          1.094        0.116
  HS02004807           JUNCTION        0.43          1.220        0.000
  HS02004817           JUNCTION        0.93          1.698        0.042
  HS02004824           JUNCTION        0.31          1.284        0.026
  HS02004830           JUNCTION        0.28          1.309        0.021
  HS02004837           JUNCTION        0.25          1.243        0.097
  HS02004842           JUNCTION        0.38          1.520        0.000
  HS02004848           JUNCTION        0.20          1.312        0.058
  HS02004852           JUNCTION        0.23          1.369        0.051
  HS02004856           JUNCTION        0.19          1.300        0.000
  HS02004862           JUNCTION        0.25          1.300        0.000
  HS02004870           JUNCTION        0.27          1.248        0.152
  HS02004876           JUNCTION        0.32          1.296        0.264
  HS02004881           JUNCTION        0.30          1.020        0.430
  HS02004901           JUNCTION        0.38          0.720        0.000
  WS02004401           JUNCTION        1.24          0.814        0.846
  WS02004402           JUNCTION        1.28          0.761        0.979
  WS02004403           JUNCTION        1.28          0.685        1.345
  WS02004404           JUNCTION        1.46          0.695        2.085
  WS02004405           JUNCTION        1.42          0.644        2.156
  WS02004406           JUNCTION        1.38          0.532        1.918
  WS02004409           JUNCTION        0.70          0.357        2.003
  WS02004410           JUNCTION        0.68          0.288        2.252
  WS02004411           JUNCTION        0.64          0.185        2.345
  WS02004412           JUNCTION        0.55          0.091        2.219
  WS02004413           JUNCTION        0.95          0.137        2.063
  WS02006109           JUNCTION        1.81          1.820        0.000
  WS02006110           JUNCTION        1.59          1.463        0.387
  WS02006111           JUNCTION        0.93          0.894        0.976
  WS02006112           JUNCTION        1.64          1.335        0.345
  WS02006113           JUNCTION        0.93          1.002        0.928
  WS02006115           JUNCTION        1.11          0.910        1.340
  WS02006116           JUNCTION        1.15          0.841        1.449
  WS02006228           JUNCTION        1.80          2.200        0.000
  WS02006229           JUNCTION        0.67          1.065        0.005
  WS02006230           JUNCTION        1.50          1.570        0.000
  WS02006231           JUNCTION        1.53          1.530        0.000
  WS02006232           JUNCTION        1.61          1.480        0.000
  WS02006234           JUNCTION        1.53          1.240        0.000
  WS02006235           JUNCTION        1.54          1.290        0.000
  WS02006238           JUNCTION        1.55          1.320        0.110
  WS02006239           JUNCTION        1.52          1.156        0.134
  WS02006240           JUNCTION        1.51          1.035        0.355
  WS02006242           JUNCTION        1.51          0.820        0.000
  WS02006243           JUNCTION        1.47          0.767        0.003
  WS02006245           JUNCTION        1.42          0.619        0.231
  WS02006247           JUNCTION        1.42          0.584        0.176
  WS02006248           JUNCTION        1.39          0.380        0.000
  WS02006249           JUNCTION        1.40          0.390        0.000
  WS02006251           JUNCTION        1.31          1.180        0.000
  WS02006252           JUNCTION        1.68          1.100        0.000
  WS02006253           JUNCTION        1.31          1.916        0.564
  WS02006256           JUNCTION        7.81          2.050        0.000
  WS02006280           JUNCTION        0.55          0.721        0.059
  WS02006284           JUNCTION        0.48          0.696        0.104
  WS02006287           JUNCTION        0.39          0.757        0.133
  YS02001580           JUNCTION        0.34          0.450        0.000
  YS02001583           JUNCTION        0.34          0.388        0.112
  YS02001586           JUNCTION        0.48          0.510        0.000
  YS02001590           JUNCTION        0.55          0.742        0.008
  YS02001593           JUNCTION        0.56          0.728        0.112
  YS02001596           JUNCTION        0.68          0.989        0.081
  YS02001600           JUNCTION        0.87          1.190        0.000
  YS02001601           JUNCTION        1.25          1.440        0.000
  YS02001602           JUNCTION        1.17          1.270        0.000
  YS02001605           JUNCTION        1.13          1.180        0.000
  YS02001607           JUNCTION        0.62          0.680        0.000
  YS02001610           JUNCTION        0.66          0.680        0.000
  YS02001613           JUNCTION        0.62          0.700        0.000
  YS02001616           JUNCTION        0.57          0.610        0.000
  YS02001619           JUNCTION        0.55          0.610        0.000
  YS02001622           JUNCTION        0.56          0.620        0.000
  YS02001625           JUNCTION        0.84          0.780        0.000
  YS02001629           JUNCTION        0.50          0.470        0.000
  YS02001633           JUNCTION        0.97          1.060        0.000
  YS02001641           JUNCTION        0.95          1.100        0.000
  YS02001644           JUNCTION        0.94          0.920        0.000
  YS02001647           JUNCTION        0.66          0.900        0.000
  YS02001649           JUNCTION        0.92          1.050        0.000
  YS02001652           JUNCTION        0.59          1.130        0.000
  YS02001655           JUNCTION        0.23          0.759        0.441
  YS02001658           JUNCTION        0.07          0.720        0.580
  YS02001748           JUNCTION        0.01          0.532        0.658
  YS02001751           JUNCTION        0.12          0.611        0.589
  YS02001754           JUNCTION        0.41          0.741        0.409
  YS02001757           JUNCTION        1.09          1.060        0.150
  YS02001759           JUNCTION        0.92          0.977        0.233
  YS02001762           JUNCTION        0.89          0.993        0.157
  YS02001765           JUNCTION        0.86          0.971        0.129
  YS02001767           JUNCTION        0.83          0.942        0.088
  YS02001770           JUNCTION        0.74          0.901        0.019
  YS02001774           JUNCTION        0.87          0.991        0.059
  YS02001779           JUNCTION        0.36          0.680        0.000
  YS02001783           JUNCTION        0.37          1.600        0.000
  YS02001784           JUNCTION        0.35          1.313        0.177
  YS02001786           JUNCTION        0.28          0.941        0.489
  YS02001788           JUNCTION        0.24          0.823        0.657
  YS02001790           JUNCTION        0.27          0.915        0.242
  YS02001791           JUNCTION        0.27          1.089        0.831
  YS02001793           JUNCTION        0.33          1.014        1.586
  YS02001882           JUNCTION        0.27          0.830        0.000
  YS02001884           JUNCTION        0.28          0.870        0.000
  YS02001887           JUNCTION        0.31          0.914        0.036
  YS02001890           JUNCTION        0.32          0.760        0.000
  YS02001895           JUNCTION        0.26          0.577        0.173
  YS02001898           JUNCTION        0.26          0.559        0.181
  YS02001901           JUNCTION        0.30          0.687        0.183
  YS02001904           JUNCTION        0.29          0.649        0.201
  YS02001907           JUNCTION        0.49          0.950        0.000
  YS02001910           JUNCTION        0.34          0.956        0.144
  YS02001915           JUNCTION        0.27          0.900        0.100
  YS02001918           JUNCTION        0.20          0.810        0.000
  YS02001920           JUNCTION        0.21          1.140        0.000
  YS02001923           JUNCTION        0.01          0.820        0.000
  YS02001926           JUNCTION        0.01          0.900        0.000
  YS02001929           JUNCTION        0.01          0.780        0.000
  YS02006553           JUNCTION        0.51          0.980        0.210
  YS02006556           JUNCTION        0.41          0.927        0.423
  YS02006558           JUNCTION        0.41          0.912        0.488
  YS02006561           JUNCTION        0.18          0.341        0.809
  YS02163301           JUNCTION        0.93          0.963        0.067
  YS02163601           JUNCTION        1.02          1.080        0.000
  YS02164001           JUNCTION        0.95          1.100        0.000
  YSB1154              JUNCTION        0.63          1.227        0.173
  YSB1171              JUNCTION        0.64          1.100        0.000
  YSB1174              JUNCTION        0.57          1.108        0.142
  YSB6556              JUNCTION        0.51          1.046        0.054
  
  
  *********************
  Node Flooding Summary
  *********************
  
  Flooding refers to all water that overflows a node, whether it ponds or not.
  --------------------------------------------------------------------------
                                                             Total   Maximum
                                 Maximum   Time of Max       Flood    Ponded
                        Hours       Rate    Occurrence      Volume     Depth
  Node                 Flooded       LPS   days hr:min    10^6 ltr    Meters
  --------------------------------------------------------------------------
  HS02004770              0.22    544.60      0  02:13       0.245     0.000
  HS02004777              0.01     60.10      0  02:08       0.000     0.000
  HS02004785              0.01    106.99      0  02:08       0.000     0.000
  HS02004788              0.01    211.87      0  02:08       0.001     0.000
  HS02004792              0.21    976.50      0  02:14       0.417     0.000
  HS02004799              0.04     90.04      0  02:11       0.003     0.000
  HS02004807              0.01     19.91      0  02:11       0.000     0.000
  HS02004842              0.01     87.91      0  02:11       0.001     0.000
  HS02004856              0.01     14.68      0  02:11       0.000     0.000
  HS02004862              0.01     16.17      0  02:11       0.000     0.000
  HS02004901              0.27    484.64      0  02:14       0.338     0.000
  WS02006109              0.24    209.66      0  02:14       0.106     0.000
  WS02006228              0.01      5.28      0  02:11       0.000     0.000
  WS02006230              0.49    545.74      0  02:13       0.571     0.000
  WS02006231              0.01      0.43      0  02:29       0.000     0.000
  WS02006232              0.12      1.78      0  02:29       0.000     0.000
  WS02006234              0.52    128.91      0  02:26       0.154     0.000
  WS02006235              0.01      9.88      0  02:40       0.000     0.000
  WS02006242              0.63    137.67      0  02:20       0.262     0.000
  WS02006248              0.85    339.23      0  02:11       0.847     0.000
  WS02006249              1.33   1267.43      0  02:13       2.591     0.000
  WS02006251              0.01     91.36      0  02:05       0.000     0.000
  WS02006252              0.12    245.63      0  00:00       0.031     0.000
  WS02006256              0.41    295.06      0  02:37       0.269     0.000
  YS02001580              0.01     86.27      0  02:08       0.000     0.000
  YS02001586              0.25    136.02      0  02:15       0.068     0.000
  YS02001600              0.01      0.86      0  02:24       0.000     0.000
  YS02001601              0.42    710.11      0  02:14       0.578     0.000
  YS02001602              0.35     61.92      0  02:26       0.065     0.000
  YS02001605              0.01      0.26      0  02:29       0.000     0.000
  YS02001607              0.01      0.19      0  02:29       0.000     0.000
  YS02001610              0.27    282.64      0  02:15       0.165     0.000
  YS02001613              0.01      1.13      0  02:29       0.000     0.000
  YS02001616              0.01      1.37      0  02:29       0.000     0.000
  YS02001619              0.01      1.98      0  02:29       0.000     0.000
  YS02001622              0.01      0.93      0  02:29       0.000     0.000
  YS02001625              0.27    880.25      0  02:15       0.371     0.000
  YS02001629              0.05     66.97      0  02:13       0.007     0.000
  YS02001633              0.01      2.43      0  02:12       0.000     0.000
  YS02001641              0.01      6.94      0  02:12       0.000     0.000
  YS02001644              0.04    248.82      0  02:14       0.021     0.000
  YS02001647              0.01      7.45      0  02:29       0.000     0.000
  YS02001649              0.01     20.87      0  02:29       0.000     0.000
  YS02001652              0.01     23.00      0  02:29       0.000     0.000
  YS02001779              0.01    267.39      0  02:11       0.003     0.000
  YS02001783              0.01    162.83      0  02:06       0.000     0.000
  YS02001882              0.01      7.79      0  02:11       0.000     0.000
  YS02001884              0.01      7.90      0  02:11       0.000     0.000
  YS02001890              0.04     40.71      0  02:11       0.002     0.000
  YS02001907              0.16   1066.28      0  02:13       0.319     0.000
  YS02001918              0.01    155.79      0  02:12       0.002     0.000
  YS02001920              0.01     26.95      0  02:12       0.000     0.000
  YS02001923              0.01    100.69      0  02:12       0.000     0.000
  YS02001926              0.01    129.65      0  02:12       0.001     0.000
  YS02001929              0.01    185.27      0  02:12       0.001     0.000
  YS02163601              0.01      8.85      0  02:12       0.000     0.000
  YS02164001              0.01     14.71      0  02:12       0.000     0.000
  YSB1171                 0.11    341.30      0  02:14       0.084     0.000
  JK-storage              0.07    757.33      0  02:10       0.154     0.000
  
  
  **********************
  Storage Volume Summary
  **********************
  
  --------------------------------------------------------------------------------------------------
                         Average     Avg  Evap Exfil       Maximum     Max    Time of Max    Maximum
                          Volume    Pcnt  Pcnt  Pcnt        Volume    Pcnt     Occurrence    Outflow
  Storage Unit           1000 m3    Full  Loss  Loss       1000 m3    Full    days hr:min        LPS
  --------------------------------------------------------------------------------------------------
  CC-storage               3.039      47     0     0         5.633      88       0  02:45    1783.53
  JK-storage               0.146      50     0     0         0.291     100       0  02:05    2300.00
  XR-storage               0.975      68     0     0         1.111      77       0  08:00     380.00
  
  
  ***********************
  Outfall Loading Summary
  ***********************
  
  -----------------------------------------------------------
                         Flow       Avg       Max       Total
                         Freq      Flow      Flow      Volume
  Outfall Node           Pcnt       LPS       LPS    10^6 ltr
  -----------------------------------------------------------
  CC-1                  47.56    231.76    683.00       2.949
  CC-2                  41.30    102.31    683.00       1.323
  JK-1                  44.44     75.45   1000.00       1.164
  JK-2                  42.36     64.34   1000.00       0.974
  WSC                   99.97    533.63   1479.76      14.352
  -----------------------------------------------------------
  System                55.13   1007.49   1479.76      20.762
  
  
  ********************
  Link Flow Summary
  ********************
  
  -----------------------------------------------------------------------------
                                 Maximum  Time of Max   Maximum    Max/    Max/
                                  |Flow|   Occurrence   |Veloc|    Full    Full
  Link                 Type          LPS  days hr:min     m/sec    Flow   Depth
  -----------------------------------------------------------------------------
  1                    CONDUIT   1479.76     0  02:18      3.68    0.52    0.51
  HS02004478WS02006287 CONDUIT   2248.00     0  02:14      2.61    0.63    1.00
  HS02004479HS02004480 CONDUIT    449.09     0  02:11      0.64    0.43    1.00
  HS02004480HS02004478 CONDUIT   2115.06     0  02:09      3.02    8.91    1.00
  HS02004770HS02004777 CONDUIT    746.02     0  02:08      1.07    1.36    1.00
  HS02004777HS02004785 CONDUIT    761.20     0  02:08      1.14    0.94    1.00
  HS02004785HS02004788 CONDUIT    639.35     0  02:08      1.36    4.82    1.00
  HS02004788HS02004792 CONDUIT    816.82     0  02:24      1.42    0.54    1.00
  HS02004792HS02004799 CONDUIT   1631.84     0  02:09      2.33    1.00    1.00
  HS02004799HS02004480 CONDUIT   1774.09     0  02:09      2.53    2.24    1.00
  HS02004802HS02004478 CONDUIT    734.41     0  02:14      1.05    0.65    1.00
  HS02004807HS02004802 CONDUIT    734.89     0  02:14      1.05    1.40    1.00
  HS02004817HS02004807 CONDUIT    460.55     0  02:14      0.66    0.27    1.00
  HS02004817HS02004824 CONDUIT    459.36     0  02:14      0.66    0.21    1.00
  HS02004824HS02004830 CONDUIT    653.53     0  02:09      0.96    0.86    1.00
  HS02004830HS02004837 CONDUIT    658.43     0  02:09      1.03    0.66    1.00
  HS02004837HS02004842 CONDUIT    824.60     0  02:09      1.18    0.49    1.00
  HS02004842HS02004848 CONDUIT    823.80     0  02:09      1.30    0.48    1.00
  HS02004848HS02004852 CONDUIT   1073.34     0  02:11      1.62    1.21    1.00
  HS02004852HS02004856 CONDUIT   1078.33     0  02:11      1.54    1.23    1.00
  HS02004856HS02004862 CONDUIT   1077.25     0  02:10      1.70    1.07    1.00
  HS02004862HS02004870 CONDUIT   1204.72     0  02:11      1.91    1.30    1.00
  HS02004870HS02004876 CONDUIT   1192.14     0  02:11      1.85    0.79    1.00
  HS02004876HS02004881 CONDUIT   1338.97     0  02:11      2.37   14.24    1.00
  HS02004881HS02006253 CONDUIT   1419.55     0  02:11      2.74    0.28    1.00
  HS02004901HS02004770 CONDUIT    265.35     0  02:21      0.38    1.00    1.00
  WS02001211WS02001212 CONDUIT    213.64     0  02:45      0.54    0.16    0.68
  WS02001212WS02001213 CONDUIT    218.23     0  02:45      1.04    0.34    0.55
  WS02001213WS02003059 CONDUIT    223.25     0  02:44      0.47    0.37    0.89
  WS02003059WS02003060 CONDUIT    230.35     0  02:44      0.67    0.15    0.80
  WS02003060WS02003069 CONDUIT   1477.96     0  02:16      2.08    0.58    0.60
  WS02003066WSF200     CONDUIT   1275.77     0  02:14      3.25    0.22    0.38
  WS02003067WS02003066 CONDUIT   1275.68     0  02:14      1.98    0.41    0.56
  WS02003069WS02003072 CONDUIT   1477.89     0  02:17      1.88    0.71    0.66
  WS02003072WS02003073 CONDUIT   1477.87     0  02:17      2.04    3.19    0.61
  WS02004138WS02004139 CONDUIT    191.27     0  00:29      2.15    0.04    0.41
  WS02004139WS02001211 CONDUIT    198.16     0  02:45      0.54    0.25    0.60
  WS02004401WS02004402 CONDUIT   1275.82     0  02:13      1.62    1.53    1.00
  WS02004402WS02004403 CONDUIT   1276.53     0  02:13      1.63    1.83    1.00
  WS02004403WS02004404 CONDUIT   1276.54     0  02:12      1.63    0.92    1.00
  WS02004404WS02004405 CONDUIT   1277.74     0  02:12      1.63   12.52    1.00
  WS02004405WS02004406 CONDUIT   1278.22     0  02:12      1.63    2.52    1.00
  WS02004406WS02004407 CONDUIT   1279.24     0  02:12      1.77    0.57    0.94
  WS02004407WS02004409 CONDUIT   1275.13     0  02:14      1.77    0.45    0.94
  WS02004409WS02004410 CONDUIT   1275.32     0  02:14      1.62    1.65    1.00
  WS02004410WS02004411 CONDUIT   1275.37     0  02:14      1.62    1.74    1.00
  WS02004411WS02004412 CONDUIT   1275.30     0  02:14      1.62    1.81    1.00
  WS02004412WS02004413 CONDUIT   1275.44     0  02:14      1.62    0.85    1.00
  WS02004413WS02003067 CONDUIT   1275.19     0  02:14      1.98    0.55    0.76
  WS02006109WS02006110 CONDUIT   1115.05     0  02:23      2.22    2.14    1.00
  WS02006110WS02006113 CONDUIT   1114.97     0  02:23      2.22    1.01    1.00
  WS02006111WS02006112 CONDUIT   1115.22     0  02:23      2.22    0.53    1.00
  WS02006112WS02006115 CONDUIT   1275.90     0  02:13      1.62    0.75    1.00
  WS02006113WS02006111 CONDUIT   1116.19     0  02:24      2.60    1.34    1.00
  WS02006115WS02006116 CONDUIT   1276.04     0  02:13      1.62    1.64    1.00
  WS02006116WS02004401 CONDUIT   1275.76     0  02:13      1.62    1.76    1.00
  WS02006228WS02006109 CONDUIT   1259.60     0  02:14      2.51    5.50    1.00
  WS02006229WS02006228 CONDUIT   1259.99     0  02:14      2.51    4.17    1.00
  WS02006230WS02006229 CONDUIT    988.24     0  02:13      2.57   21.99    1.00
  WS02006231WS02006230 CONDUIT    454.04     0  02:24      1.30    6.89    1.00
  WS02006232WS02006231 CONDUIT    453.68     0  02:29      1.18    0.95    1.00
  WS02006234WS02006232 CONDUIT    453.22     0  02:08      1.41    0.92    1.00
  WS02006235WS02006234 CONDUIT    418.84     0  02:35      1.23    4.42    1.00
  WS02006238WS02006235 CONDUIT    416.39     0  02:20      1.45    0.93    1.00
  WS02006239WS02006238 CONDUIT    415.60     0  02:20      1.12    1.33    1.00
  WS02006240WS02006239 CONDUIT    415.28     0  02:20      1.26    1.31    1.00
  WS02006242WS02006240 CONDUIT    415.36     0  02:20      1.14    1.65    1.00
  WS02006243WS02006242 CONDUIT    408.34     0  03:25      1.34    0.87    1.00
  WS02006245WS02006243 CONDUIT    408.34     0  03:25      1.39    1.21    1.00
  WS02006247WS02006245 CONDUIT    408.27     0  03:25      1.37    3.24    1.00
  WS02006248WS02006247 CONDUIT    408.25     0  03:25      1.39    0.89    1.00
  WS02006249WS02006248 CONDUIT    413.26     0  03:37      1.39    2.26    1.00
  WS02006251WS02006249 CONDUIT   1328.32     0  02:13      3.45    3.83    1.00
  WS02006252WS02006251 CONDUIT    416.82     0  02:06      3.84    1.53    1.00
  WS02006253WS02006251 CONDUIT   1449.46     0  02:11      3.77    4.35    1.00
  WS02006256WS02006235 CONDUIT    288.93     0  00:00      4.23    3.06    1.00
  WS02006280WS02006229 CONDUIT   2248.74     0  02:14      4.50    0.48    1.00
  WS02006284WS02006280 CONDUIT   2247.56     0  02:14      3.01    0.94    1.00
  WS02006287WS02006284 CONDUIT   2247.39     0  02:14      2.86    1.04    1.00
  WSF200WS02003060     CONDUIT   1275.23     0  02:14      2.30    0.28    0.50
  YS02001580YS02001583 CONDUIT    115.76     0  02:08      0.67    0.45    1.00
  YS02001583YS02001586 CONDUIT    164.35     0  02:08      0.68    0.25    1.00
  YS02001586YS02001590 CONDUIT    318.08     0  02:16      1.27    0.56    1.00
  YS02001590YS02001593 CONDUIT    318.02     0  02:14      1.12    2.00    1.00
  YS02001593YS02001596 CONDUIT    318.03     0  02:12      1.62    0.50    1.00
  YS02001596YS02001600 CONDUIT    318.15     0  02:13      1.13    0.62    1.00
  YS02001600YS02001601 CONDUIT    317.93     0  02:13      1.12    0.55    1.00
  YS02001601YS02001602 CONDUIT    516.30     0  02:08      1.83    1.86    1.00
  YS02001602YS02001605 CONDUIT    516.39     0  02:08      1.83   10.93    1.00
  YS02001605YS02001607 CONDUIT    515.78     0  02:08      1.82    2.83    1.00
  YS02001607YS02001610 CONDUIT    517.13     0  02:08      0.66    0.49    1.00
  YS02001610YS02001613 CONDUIT    518.33     0  02:07      0.66    0.60    1.00
  YS02001613YS02001616 CONDUIT    516.25     0  02:08      0.66    0.44    1.00
  YS02001616YS02001619 CONDUIT    501.92     0  02:08      0.66    0.87    1.00
  YS02001619YS02001622 CONDUIT    928.70     0  02:10      1.19    1.37    1.00
  YS02001622YS02001625 CONDUIT    929.49     0  02:08      1.18    0.50    1.00
  YS02001625YS02001629 CONDUIT    930.76     0  02:08      1.19    0.44    1.00
  YS02001629YS02163301 CONDUIT    925.80     0  02:10      1.18    1.14    1.00
  YS02001633YS02163601 CONDUIT   1363.42     0  02:10      1.74    1.43    1.00
  YS02001641YS02001644 CONDUIT   1362.33     0  02:10      1.73    4.40    1.00
  YS02001644YS02001647 CONDUIT   1760.02     0  02:11      2.25    1.03    1.00
  YS02001647YS02001649 CONDUIT   1768.26     0  02:11      2.34    0.93    1.00
  YS02001649YS02001757 CONDUIT   1921.51     0  02:10      2.46    1.17    1.00
  YS02001652YS02001649 CONDUIT    639.30     0  02:14      0.81    0.32    1.00
  YS02001655YS02001652 CONDUIT    638.02     0  02:14      1.30    0.31    1.00
  YS02001658YS02001655 CONDUIT    637.36     0  02:14      1.92    0.27    1.00
  YS02001661YS02001658 CONDUIT    636.56     0  02:14      2.30    0.25    1.00
  YS02001664YS02001661 CONDUIT    752.16     0  02:14      2.28    0.24    0.72
  YS02001745YS02001748 CONDUIT    574.95     0  02:12      2.11    0.22    0.85
  YS02001748YS02001751 CONDUIT    375.84     0  02:13      1.66    0.19    1.00
  YS02001751YS02001754 CONDUIT    374.88     0  02:13      1.43    0.18    1.00
  YS02001754YS02001757 CONDUIT    376.35     0  02:13      0.48    0.15    1.00
  YS02001757CaochengTiaoxuchi CONDUIT   3047.21     0  02:13      3.88    1.32    1.00
  YS02001759YS02001757 CONDUIT   1111.33     0  02:14      1.41    0.79    1.00
  YS02001762YS02001759 CONDUIT    650.92     0  02:14      0.83    0.75    1.00
  YS02001765YS02001762 CONDUIT    649.32     0  02:13      0.83    0.61    1.00
  YS02001767YS02001765 CONDUIT    647.51     0  02:13      0.82    0.81    1.00
  YS02001770YS02001767 CONDUIT    645.63     0  02:14      0.82    2.56    1.00
  YS02001774YS02001770 CONDUIT    391.55     0  02:11      0.50    0.25    1.00
  YS02001779YS02001774 CONDUIT    400.05     0  02:11      0.52    0.20    1.00
  YS02001783YS02001784 CONDUIT   1099.63     0  02:22      2.19    1.52    1.00
  YS02001784YS02001785 CONDUIT   1100.82     0  02:22      2.19    2.56    1.00
  YS02001786YS02001788 CONDUIT   1101.19     0  02:22      2.38    2.12    1.00
  YS02001788YS02001790 CONDUIT   1157.71     0  02:21      2.67    0.85    1.00
  YS02001790YS02001791 CONDUIT   1185.89     0  02:22      3.29    1.29    1.00
  YS02001791YS02001793 CONDUIT   1217.89     0  02:21      6.44    0.52    1.00
  YS02001793JiankangQianchi CONDUIT   1401.20     0  02:25      2.40    0.11    1.00
  YS02001882YS02001884 CONDUIT     87.78     0  02:10      0.11    0.10    1.00
  YS02001884YS02001887 CONDUIT    120.82     0  02:08      0.17    0.16    1.00
  YS02001887YS02001890 CONDUIT    500.21     0  02:13      0.64    0.86    1.00
  YS02001890YS02001895 CONDUIT    495.32     0  02:13      0.63    0.23    1.00
  YS02001895YS02001898 CONDUIT    495.43     0  02:13      0.63    0.86    1.00
  YS02001898YS02001901 CONDUIT    496.57     0  02:13      0.63    0.32    1.00
  YS02001901YS02001904 CONDUIT    495.23     0  02:13      0.63    0.77    1.00
  YS02001904YS02001907 CONDUIT    495.50     0  02:13      0.63    0.17    1.00
  YS02001907YS02006553 CONDUIT    802.29     0  02:24      0.89    0.94    1.00
  YS02001910YS02001907 CONDUIT    971.17     0  02:12      1.24    0.55    1.00
  YS02001915YS02001910 CONDUIT    969.61     0  02:12      1.23    0.48    1.00
  YS02001918YS02001915 CONDUIT    485.89     0  02:10      0.66    0.27    1.00
  YS02001920YS02001918 CONDUIT    453.21     0  02:12      0.65    0.44    1.00
  YS02001923YS02001920 CONDUIT    448.64     0  02:12      0.72    0.20    1.00
  YS02001926YS02001923 CONDUIT    417.50     0  02:12      0.96    0.60    1.00
  YS02001929YS02001926 CONDUIT    414.06     0  02:12      1.12    0.20    1.00
  YS02006553YS02006556 CONDUIT    795.32     0  02:23      1.01    0.68    1.00
  YS02006556YS02006558 CONDUIT    796.72     0  02:23      1.01    0.63    1.00
  YS02006558YS02006561 CONDUIT   1094.18     0  02:22      3.87    2.42    1.00
  YS02006561YS02001783 CONDUIT   1099.13     0  02:22      2.27    0.57    1.00
  YS02163301YS02001633 CONDUIT    926.49     0  02:10      1.18    0.87    1.00
  YS02163601YS02164001 CONDUIT   1363.84     0  02:10      1.74    1.21    1.00
  YS02164001YS02001641 CONDUIT   1363.66     0  02:10      1.74    1.86    1.00
  YSB1154YSB6556       CONDUIT    276.03     0  02:14      0.72    0.50    1.00
  YSB1171HS02004479    CONDUIT    451.32     0  02:11      0.90    0.30    1.00
  YSB1174YSB1171       CONDUIT    236.79     0  02:13      0.62    0.36    1.00
  YSB6556YSB1171       CONDUIT    276.90     0  02:14      0.72    0.29    1.00
  CC-R1                PUMP       683.00     0  00:00              1.00
  CC-R2                PUMP       683.00     0  00:00              1.00
  CC-S1                PUMP       200.00     0  00:00              1.00
  CC-S2                PUMP       200.00     0  00:00              1.00
  JK-R1                PUMP      1000.00     0  00:00              1.00
  JK-R2                PUMP      1000.00     0  00:00              1.00
  JK-S                 PUMP       300.00     0  00:00              1.00
  XR-1                 PUMP        95.00     0  00:00              1.00
  XR-2                 PUMP        95.00     0  00:00              1.00
  XR-3                 PUMP        95.00     0  00:00              1.00
  XR-4                 PUMP        95.00     0  00:00              1.00
  
  
  ***************************
  Flow Classification Summary
  ***************************
  
  -------------------------------------------------------------------------------------
                      Adjusted    ---------- Fraction of Time in Flow Class ---------- 
                       /Actual         Up    Down  Sub   Sup   Up    Down  Norm  Inlet 
  Conduit               Length    Dry  Dry   Dry   Crit  Crit  Crit  Crit  Ltd   Ctrl  
  -------------------------------------------------------------------------------------
  1                       1.00   0.00  0.00  0.00  0.00  1.00  0.00  0.00  0.43  0.00
  HS02004478WS02006287    1.00   0.07  0.00  0.00  0.77  0.16  0.00  0.00  0.61  0.00
  HS02004479HS02004480    1.00   0.02  0.00  0.00  0.98  0.00  0.00  0.00  0.12  0.00
  HS02004480HS02004478    1.00   0.06  0.00  0.00  0.70  0.00  0.00  0.25  0.00  0.00
  HS02004770HS02004777    1.00   0.00  0.05  0.00  0.95  0.00  0.00  0.00  0.03  0.00
  HS02004777HS02004785    1.00   0.00  0.00  0.00  1.00  0.00  0.00  0.00  0.13  0.00
  HS02004785HS02004788    1.00   0.00  0.00  0.00  1.00  0.00  0.00  0.00  0.00  0.00
  HS02004788HS02004792    1.00   0.00  0.00  0.00  1.00  0.00  0.00  0.00  0.93  0.00
  HS02004792HS02004799    1.00   0.00  0.00  0.00  0.99  0.01  0.00  0.00  0.89  0.00
  HS02004799HS02004480    1.00   0.00  0.02  0.00  0.93  0.00  0.05  0.00  0.00  0.00
  HS02004802HS02004478    1.00   0.06  0.00  0.00  0.94  0.00  0.00  0.00  0.03  0.00
  HS02004807HS02004802    1.00   0.05  0.00  0.00  0.94  0.00  0.00  0.01  0.00  0.00
  HS02004817HS02004807    1.00   0.00  0.05  0.00  0.95  0.00  0.00  0.00  0.01  0.00
  HS02004817HS02004824    1.00   0.00  0.00  0.00  1.00  0.00  0.00  0.00  0.85  0.00
  HS02004824HS02004830    1.00   0.00  0.00  0.00  1.00  0.00  0.00  0.00  0.01  0.00
  HS02004830HS02004837    1.00   0.00  0.00  0.00  1.00  0.00  0.00  0.00  0.91  0.00
  HS02004837HS02004842    1.00   0.00  0.00  0.00  1.00  0.00  0.00  0.00  0.11  0.00
  HS02004842HS02004848    1.00   0.00  0.05  0.00  0.95  0.00  0.00  0.00  0.59  0.00
  HS02004848HS02004852    1.00   0.05  0.00  0.00  0.95  0.00  0.00  0.00  0.70  0.00
  HS02004852HS02004856    1.00   0.05  0.00  0.00  0.94  0.00  0.00  0.00  0.71  0.00
  HS02004856HS02004862    1.00   0.00  0.08  0.00  0.92  0.00  0.00  0.00  0.76  0.00
  HS02004862HS02004870    1.00   0.00  0.00  0.00  1.00  0.00  0.00  0.00  0.04  0.00
  HS02004870HS02004876    1.00   0.00  0.00  0.00  0.99  0.00  0.00  0.00  0.88  0.00
  HS02004876HS02004881    1.00   0.01  0.00  0.00  0.86  0.13  0.00  0.00  0.00  0.00
  HS02004881HS02006253    1.00   0.02  0.00  0.00  0.71  0.01  0.00  0.25  0.42  0.00
  HS02004901HS02004770    1.00   0.05  0.00  0.00  0.95  0.00  0.00  0.00  0.00  0.00
  WS02001211WS02001212    1.00   0.00  0.01  0.00  0.99  0.00  0.00  0.00  0.00  0.00
  WS02001212WS02001213    1.00   0.01  0.00  0.00  0.44  0.00  0.54  0.00  0.00  0.00
  WS02001213WS02003059    1.00   0.00  0.00  0.00  1.00  0.00  0.00  0.00  0.00  0.00
  WS02003059WS02003060    1.00   0.00  0.00  0.00  1.00  0.00  0.00  0.00  0.03  0.00
  WS02003060WS02003069    1.00   0.00  0.00  0.00  0.99  0.01  0.00  0.00  0.28  0.00
  WS02003066WSF200        1.00   0.05  0.00  0.00  0.00  0.95  0.00  0.00  0.65  0.00
  WS02003067WS02003066    1.00   0.04  0.01  0.00  0.95  0.00  0.00  0.00  0.00  0.00
  WS02003069WS02003072    1.00   0.00  0.00  0.00  1.00  0.00  0.00  0.00  0.49  0.00
  WS02003072WS02003073    1.00   0.00  0.00  0.00  0.00  0.00  0.00  1.00  0.00  0.00
  WS02004138WS02004139    1.00   0.00  0.00  0.00  0.99  0.00  0.00  0.01  0.98  0.00
  WS02004139WS02001211    1.00   0.00  0.00  0.00  1.00  0.00  0.00  0.00  0.00  0.00
  WS02004401WS02004402    1.00   0.01  0.00  0.00  0.99  0.00  0.00  0.00  0.00  0.00
  WS02004402WS02004403    1.00   0.01  0.00  0.00  0.99  0.00  0.00  0.00  0.00  0.00
  WS02004403WS02004404    1.00   0.00  0.01  0.00  0.99  0.00  0.00  0.00  0.00  0.00
  WS02004404WS02004405    1.00   0.00  0.00  0.00  1.00  0.00  0.00  0.00  0.00  0.00
  WS02004405WS02004406    1.00   0.00  0.00  0.00  1.00  0.00  0.00  0.00  0.00  0.00
  WS02004406WS02004407    1.00   0.00  0.02  0.00  0.98  0.00  0.00  0.00  0.00  0.00
  WS02004407WS02004409    1.00   0.02  0.00  0.00  0.97  0.00  0.00  0.00  0.86  0.00
  WS02004409WS02004410    1.00   0.02  0.00  0.00  0.98  0.00  0.00  0.00  0.03  0.00
  WS02004410WS02004411    1.00   0.02  0.00  0.00  0.98  0.00  0.00  0.00  0.01  0.00
  WS02004411WS02004412    1.00   0.02  0.00  0.00  0.98  0.00  0.00  0.00  0.00  0.00
  WS02004412WS02004413    1.00   0.03  0.00  0.00  0.97  0.00  0.00  0.00  0.01  0.00
  WS02004413WS02003067    1.00   0.03  0.01  0.00  0.00  0.00  0.96  0.00  0.00  0.00
  WS02006109WS02006110    1.00   0.00  0.00  0.00  0.99  0.00  0.01  0.00  0.00  0.00
  WS02006110WS02006113    1.00   0.00  0.01  0.00  0.99  0.00  0.00  0.00  0.00  0.00
  WS02006111WS02006112    1.00   0.01  0.00  0.00  0.99  0.00  0.00  0.00  0.80  0.00
  WS02006112WS02006115    1.00   0.01  0.00  0.00  0.99  0.00  0.00  0.00  0.00  0.00
  WS02006113WS02006111    1.00   0.01  0.00  0.00  0.13  0.86  0.00  0.00  0.15  0.00
  WS02006115WS02006116    1.00   0.01  0.00  0.00  0.98  0.00  0.00  0.00  0.00  0.00
  WS02006116WS02004401    1.00   0.01  0.00  0.00  0.99  0.00  0.00  0.00  0.00  0.00
  WS02006228WS02006109    1.00   0.00  0.00  0.00  1.00  0.00  0.00  0.00  0.00  0.00
[...]
  WSF200WS02003060        1.00   0.00  0.05  0.00  0.71  0.24  0.00  0.00  0.53  0.00
  YS02001580YS02001583    1.00   0.15  0.70  0.00  0.14  0.00  0.00  0.00  0.67  0.00
  YS02001583YS02001586    1.00   0.41  0.37  0.00  0.22  0.00  0.00  0.00  0.67  0.00
  YS02001586YS02001590    1.00   0.05  0.00  0.00  0.40  0.07  0.00  0.48  0.34  0.00
  YS02001590YS02001593    1.00   0.05  0.00  0.00  0.07  0.00  0.87  0.00  0.00  0.00
  YS02001593YS02001596    1.00   0.06  0.00  0.00  0.09  0.01  0.00  0.84  0.03  0.00
  YS02001596YS02001600    1.00   0.06  0.00  0.00  0.17  0.01  0.00  0.76  0.05  0.00
  YS02001600YS02001601    1.00   0.06  0.00  0.00  0.94  0.00  0.00  0.00  0.63  0.00
  YS02001601YS02001602    1.00   0.05  0.00  0.00  0.94  0.00  0.00  0.00  0.00  0.00
  YS02001602YS02001605    1.00   0.06  0.00  0.00  0.94  0.00  0.00  0.00  0.00  0.00
  YS02001605YS02001607    1.00   0.06  0.00  0.00  0.94  0.00  0.00  0.00  0.00  0.00
  YS02001607YS02001610    1.00   0.06  0.00  0.00  0.94  0.00  0.00  0.00  0.02  0.00
  YS02001610YS02001613    1.00   0.06  0.00  0.00  0.94  0.00  0.00  0.00  0.01  0.00
  YS02001613YS02001616    1.00   0.05  0.00  0.00  0.95  0.00  0.00  0.00  0.01  0.00
  YS02001616YS02001619    1.00   0.05  0.00  0.00  0.95  0.00  0.00  0.00  0.00  0.00
  YS02001619YS02001622    1.00   0.05  0.00  0.00  0.95  0.00  0.00  0.00  0.34  0.00
  YS02001622YS02001625    1.00   0.05  0.00  0.00  0.95  0.00  0.00  0.00  0.05  0.00
  YS02001625YS02001629    1.00   0.06  0.03  0.00  0.19  0.00  0.73  0.00  0.00  0.00
  YS02001629YS02163301    1.00   0.07  0.01  0.00  0.92  0.00  0.00  0.00  0.00  0.00
  YS02001633YS02163601    1.00   0.00  0.00  0.00  1.00  0.00  0.00  0.00  0.15  0.00
  YS02001641YS02001644    1.00   0.00  0.00  0.00  1.00  0.00  0.00  0.00  0.00  0.00
  YS02001644YS02001647    1.00   0.00  0.08  0.00  0.92  0.00  0.00  0.00  0.00  0.00
  YS02001647YS02001649    1.00   0.00  0.08  0.00  0.88  0.04  0.00  0.00  0.52  0.00
  YS02001649YS02001757    1.00   0.00  0.00  0.00  0.95  0.05  0.00  0.00  0.48  0.00
  YS02001652YS02001649    1.00   0.00  0.00  0.00  0.98  0.02  0.00  0.00  0.62  0.00
  YS02001655YS02001652    1.00   0.00  0.00  0.00  0.34  0.03  0.00  0.63  0.09  0.00
  YS02001658YS02001655    1.00   0.00  0.06  0.00  0.84  0.10  0.00  0.00  0.65  0.00
  YS02001661YS02001658    1.00   0.06  0.00  0.00  0.64  0.30  0.00  0.00  0.68  0.00
  YS02001664YS02001661    1.00   0.05  0.00  0.00  0.89  0.05  0.00  0.00  0.86  0.00
  YS02001745YS02001748    1.00   0.00  0.00  0.00  0.12  0.00  0.00  0.88  0.07  0.00
  YS02001748YS02001751    1.00   0.00  0.00  0.00  0.90  0.10  0.00  0.00  0.69  0.00
  YS02001751YS02001754    1.00   0.00  0.00  0.00  0.29  0.02  0.00  0.69  0.07  0.00
  YS02001754YS02001757    1.00   0.00  0.00  0.00  1.00  0.00  0.00  0.00  0.69  0.00
  YS02001757CaochengTiaoxuchi    1.00   0.00  0.00  0.00  1.00  0.00  0.00  0.00  0.44  0.00
  YS02001759YS02001757    1.00   0.00  0.00  0.00  1.00  0.00  0.00  0.00  0.34  0.00
  YS02001762YS02001759    1.00   0.00  0.00  0.00  1.00  0.00  0.00  0.00  0.07  0.00
  YS02001765YS02001762    1.00   0.00  0.00  0.00  1.00  0.00  0.00  0.00  0.49  0.00
  YS02001767YS02001765    1.00   0.00  0.00  0.00  1.00  0.00  0.00  0.00  0.02  0.00
  YS02001770YS02001767    1.00   0.00  0.00  0.00  1.00  0.00  0.00  0.00  0.00  0.00
  YS02001774YS02001770    1.00   0.00  0.06  0.00  0.73  0.00  0.21  0.00  0.04  0.00
  YS02001779YS02001774    1.00   0.00  0.00  0.00  1.00  0.00  0.00  0.00  0.69  0.00
  YS02001783YS02001784    1.00   0.00  0.09  0.00  0.91  0.00  0.00  0.00  0.58  0.00
  YS02001784YS02001785    1.00   0.00  0.00  0.00  1.00  0.00  0.00  0.00  0.18  0.00
  YS02001786YS02001788    1.00   0.00  0.00  0.00  0.82  0.18  0.00  0.00  0.00  0.00
  YS02001788YS02001790    1.00   0.00  0.00  0.00  0.12  0.88  0.00  0.00  0.84  0.00
  YS02001790YS02001791    1.00   0.00  0.00  0.00  0.04  0.96  0.00  0.00  0.14  0.00
  YS02001791YS02001793    1.00   0.00  0.00  0.00  0.04  0.96  0.00  0.00  0.01  0.00
  YS02001793JiankangQianchi    1.00   0.00  0.00  0.00  1.00  0.00  0.00  0.00  0.94  0.00
  YS02001882YS02001884    1.00   0.07  0.01  0.00  0.93  0.00  0.00  0.00  0.00  0.00
  YS02001884YS02001887    1.00   0.03  0.02  0.00  0.95  0.00  0.00  0.00  0.00  0.00
  YS02001887YS02001890    1.00   0.00  0.00  0.00  0.98  0.00  0.01  0.00  0.00  0.00
  YS02001890YS02001895    1.00   0.00  0.07  0.00  0.92  0.00  0.00  0.00  0.00  0.00
  YS02001895YS02001898    1.00   0.08  0.00  0.00  0.91  0.00  0.01  0.00  0.00  0.00
  YS02001898YS02001901    1.00   0.08  0.00  0.00  0.92  0.00  0.00  0.00  0.01  0.00
  YS02001901YS02001904    1.00   0.08  0.00  0.00  0.92  0.00  0.00  0.00  0.00  0.00
  YS02001904YS02001907    1.00   0.00  0.07  0.00  0.92  0.00  0.00  0.00  0.00  0.00
  YS02001907YS02006553    1.00   0.00  0.01  0.00  0.99  0.00  0.00  0.00  0.00  0.00
  YS02001910YS02001907    1.00   0.00  0.00  0.00  0.98  0.00  0.00  0.01  0.12  0.00
  YS02001915YS02001910    1.00   0.00  0.00  0.00  0.98  0.02  0.00  0.00  0.17  0.00
  YS02001918YS02001915    1.00   0.00  0.00  0.00  0.99  0.01  0.00  0.00  0.79  0.00
  YS02001920YS02001918    1.00   0.00  0.00  0.00  1.00  0.00  0.00  0.00  0.00  0.00
  YS02001923YS02001920    1.00   0.00  0.00  0.00  1.00  0.00  0.00  0.00  0.95  0.00
  YS02001926YS02001923    1.00   0.00  0.03  0.00  0.02  0.00  0.94  0.00  0.00  0.00
  YS02001929YS02001926    1.00   0.00  0.05  0.00  0.95  0.00  0.00  0.00  0.85  0.00
  YS02006553YS02006556    1.00   0.01  0.00  0.00  0.99  0.00  0.00  0.00  0.03  0.00
  YS02006556YS02006558    1.00   0.00  0.00  0.00  1.00  0.00  0.00  0.00  0.00  0.00
  YS02006558YS02006561    1.00   0.09  0.00  0.00  0.03  0.89  0.00  0.00  0.18  0.00
  YS02006561YS02001783    1.00   0.09  0.00  0.00  0.04  0.87  0.00  0.00  0.71  0.00
  YS02163301YS02001633    1.00   0.00  0.07  0.00  0.93  0.00  0.00  0.00  0.00  0.00
  YS02163601YS02164001    1.00   0.00  0.03  0.00  0.97  0.00  0.00  0.00  0.00  0.00
  YS02164001YS02001641    1.00   0.00  0.03  0.00  0.97  0.00  0.00  0.00  0.06  0.00
  YSB1154YSB6556          1.00   0.05  0.00  0.00  0.95  0.00  0.00  0.00  0.02  0.00
  YSB1171HS02004479       1.00   0.02  0.00  0.00  0.98  0.00  0.00  0.01  0.10  0.00
  YSB1174YSB1171          1.00   0.02  0.01  0.00  0.96  0.00  0.00  0.00  0.00  0.00
  YSB6556YSB1171          1.00   0.02  0.03  0.00  0.95  0.00  0.00  0.00  0.00  0.00
  
  
  *************************
  Conduit Surcharge Summary
  *************************
  
  ----------------------------------------------------------------------------
                                                           Hours        Hours 
                         --------- Hours Full --------   Above Full   Capacity
  Conduit                Both Ends  Upstream  Dnstream   Normal Flow   Limited
  ----------------------------------------------------------------------------
  HS02004478WS02006287        0.29      0.29      0.46      0.01         0.01
  HS02004479HS02004480        0.46      0.46      0.48      0.01         0.01
  HS02004480HS02004478        0.40      0.45      0.40      1.46         0.40
  HS02004770HS02004777        0.37      0.37      0.38      0.10         0.06
  HS02004777HS02004785        0.33      0.33      0.38      0.01         0.01
  HS02004785HS02004788        0.32      0.33      0.32      1.14         0.31
  HS02004788HS02004792        0.32      0.32      0.43      0.01         0.01
  HS02004792HS02004799        0.43      0.43      0.54      0.01         0.01
  HS02004799HS02004480        0.45      0.45      0.54      0.62         0.01
  HS02004802HS02004478        0.40      0.40      0.47      0.01         0.01
  HS02004807HS02004802        0.43      0.43      0.46      0.09         0.10
  HS02004817HS02004807        0.43      0.43      0.93      0.01         0.01
  HS02004817HS02004824        0.31      0.31      0.93      0.01         0.01
  HS02004824HS02004830        0.28      0.28      0.31      0.01         0.01
  HS02004830HS02004837        0.25      0.25      0.28      0.01         0.01
  HS02004837HS02004842        0.25      0.25      0.38      0.01         0.01
  HS02004842HS02004848        0.20      0.20      0.38      0.01         0.01
  HS02004848HS02004852        0.20      0.20      0.22      0.03         0.01
  HS02004852HS02004856        0.22      0.22      0.25      0.02         0.01
  HS02004856HS02004862        0.19      0.19      0.25      0.01         0.01
  HS02004862HS02004870        0.25      0.25      0.27      0.03         0.04
  HS02004870HS02004876        0.27      0.27      0.32      0.01         0.01
  HS02004876HS02004881        0.30      0.32      0.30      1.17         0.29
  HS02004881HS02006253        0.30      0.30      1.31      0.01         0.01
  HS02004901HS02004770        0.37      0.37      0.38      0.01         0.01
  WS02003072WS02003073        0.01      0.01      0.01      2.78         0.01
  WS02004401WS02004402        1.24      1.24      1.28      1.02         1.00
  WS02004402WS02004403        1.28      1.28      1.28      1.23         1.22
  WS02004403WS02004404        1.28      1.28      1.46      0.01         0.01
  WS02004404WS02004405        1.42      1.46      1.42      5.23         1.42
  WS02004405WS02004406        1.38      1.42      1.38      1.62         1.38
  WS02004406WS02004407        0.01      0.01      1.38      0.01         0.01
  WS02004407WS02004409        0.01      0.01      0.70      0.01         0.01
  WS02004409WS02004410        0.68      0.70      0.68      1.11         0.68
  WS02004410WS02004411        0.64      0.68      0.64      1.19         0.64
  WS02004411WS02004412        0.55      0.64      0.55      1.23         0.55
  WS02004412WS02004413        0.55      0.55      0.95      0.01         0.01
  WS02004413WS02003067        0.01      0.01      0.95      0.01         0.01
  WS02006109WS02006110        1.59      1.59      1.92      1.59         0.01
  WS02006110WS02006113        0.93      0.93      1.87      0.18         0.01
  WS02006111WS02006112        0.93      0.93      2.46      0.01         0.01
  WS02006112WS02006115        1.11      1.11      1.64      0.01         0.01
  WS02006113WS02006111        0.93      0.93      0.93      0.96         0.93
  WS02006115WS02006116        1.14      1.14      1.15      1.09         1.08
  WS02006116WS02004401        1.23      1.23      1.24      1.20         1.19
  WS02006228WS02006109        1.81      1.92      1.81      3.11         1.81
  WS02006229WS02006228        1.80      1.82      1.80      2.33         1.80
  WS02006230WS02006229        2.01      2.16      2.01      5.05         1.11
  WS02006231WS02006230        1.50      1.50      1.53      4.71         0.75
  WS02006232WS02006231        1.53      1.53      1.61      0.01         0.12
  WS02006234WS02006232        1.54      1.54      1.61      0.01         0.01
  WS02006235WS02006234        1.53      1.53      1.54      4.11         0.74
  WS02006238WS02006235        1.55      1.55      1.56      0.01         0.23
  WS02006239WS02006238        1.54      1.54      1.55      1.16         0.39
  WS02006240WS02006239        1.51      1.51      1.52      1.15         0.37
  WS02006242WS02006240        1.51      1.51      1.58      1.42         0.64
  WS02006243WS02006242        1.48      1.48      1.51      0.01         0.01
  WS02006245WS02006243        1.44      1.44      1.47      0.54         0.33
  WS02006247WS02006245        1.42      1.43      1.42      3.58         0.56
  WS02006248WS02006247        1.40      1.40      1.42      0.01         0.01
  WS02006249WS02006248        1.39      1.39      1.40      2.53         0.01
  WS02006251WS02006249        1.38      1.38      1.40      1.48         1.21
  WS02006252WS02006251        1.65      1.66      1.68      0.98         0.01
  WS02006253WS02006251        1.37      1.37      1.38      0.56         0.03
  WS02006256WS02006235        4.71      4.72      7.80      0.18         0.01
  WS02006280WS02006229        0.56      0.56      0.67      0.01         0.01
  WS02006284WS02006280        0.48      0.48      0.55      0.01         0.01
  WS02006287WS02006284        0.39      0.39      0.49      0.13         0.13
  YS02001580YS02001583        0.34      0.34      0.38      0.01         0.01
  YS02001583YS02001586        0.34      0.34      0.48      0.01         0.01
  YS02001586YS02001590        0.49      0.49      0.55      0.01         0.01
  YS02001590YS02001593        0.56      0.56      0.57      0.56         0.01
  YS02001593YS02001596        0.57      0.57      0.68      0.01         0.01
  YS02001596YS02001600        0.73      0.73      0.87      0.01         0.01
  YS02001600YS02001601        0.95      0.95      1.25      0.01         0.01
  YS02001601YS02001602        1.17      1.17      1.28      0.76         0.01
  YS02001602YS02001605        1.13      1.13      1.17      1.97         0.01
  YS02001605YS02001607        1.10      1.13      1.13      1.02         0.92
  YS02001607YS02001610        0.62      0.62      0.66      0.01         0.01
  YS02001610YS02001613        0.62      0.62      0.66      0.01         0.01
  YS02001613YS02001616        0.57      0.57      0.62      0.01         0.01
  YS02001616YS02001619        0.55      0.55      0.57      0.01         0.01
  YS02001619YS02001622        0.55      0.55      0.56      0.48         0.40
  YS02001622YS02001625        0.56      0.56      0.84      0.01         0.01
  YS02001625YS02001629        0.50      0.50      0.84      0.01         0.01
  YS02001629YS02163301        0.89      0.89      0.93      0.05         0.10
  YS02001633YS02163601        0.97      0.97      1.02      0.23         0.23
  YS02001641YS02001644        0.94      0.95      0.94      1.24         0.89
  YS02001644YS02001647        0.66      0.66      0.94      0.02         0.01
  YS02001647YS02001649        0.66      0.66      0.92      0.01         0.01
  YS02001649YS02001757        0.91      0.92      1.09      0.06         0.05
  YS02001652YS02001649        0.64      0.64      0.92      0.01         0.01
  YS02001655YS02001652        0.23      0.23      0.59      0.01         0.01
  YS02001658YS02001655        0.07      0.07      0.23      0.01         0.01
  YS02001661YS02001658        0.01      0.01      0.07      0.01         0.01
  YS02001664YS02001661        0.01      0.01      0.01      0.01         0.01
  YS02001745YS02001748        0.01      0.01      0.01      0.01         0.01
  YS02001748YS02001751        0.04      0.04      0.12      0.01         0.01
  YS02001751YS02001754        0.12      0.12      0.41      0.01         0.01
  YS02001754YS02001757        0.59      0.59      1.09      0.01         0.01
  YS02001757CaochengTiaoxuchi        1.09      1.09      3.12      0.17         0.16
  YS02001759YS02001757        0.92      0.92      1.09      0.01         0.01
  YS02001762YS02001759        0.89      0.89      0.92      0.01         0.02
  YS02001765YS02001762        0.86      0.86      0.89      0.01         0.01
  YS02001767YS02001765        0.83      0.83      0.86      0.01         0.02
  YS02001770YS02001767        0.80      0.80      0.83      0.30         0.30
  YS02001774YS02001770        0.74      0.74      0.87      0.01         0.01
  YS02001779YS02001774        0.36      0.36      0.87      0.01         0.01
  YS02001783YS02001784        0.35      0.37      0.35      0.40         0.32
  YS02001784YS02001785        0.28      0.35      0.28      0.62         0.28
  YS02001786YS02001788        0.24      0.28      0.24      0.50         0.24
  YS02001788YS02001790        0.24      0.24      0.27      0.01         0.01
  YS02001790YS02001791        0.26      0.27      0.27      0.28         0.17
  YS02001791YS02001793        0.27      0.27      0.35      0.01         0.01
  YS02001793JiankangQianchi        0.33      0.33      7.69      0.01         0.01
  YS02001882YS02001884        0.27      0.27      0.28      0.01         0.01
  YS02001884YS02001887        0.30      0.30      0.31      0.01         0.01
  YS02001887YS02001890        0.32      0.32      0.33      0.01         0.01
  YS02001890YS02001895        0.26      0.26      0.34      0.01         0.01
  YS02001895YS02001898        0.26      0.26      0.26      0.01         0.01
  YS02001898YS02001901        0.27      0.27      0.30      0.01         0.01
  YS02001901YS02001904        0.29      0.29      0.30      0.01         0.01
  YS02001904YS02001907        0.29      0.29      0.51      0.01         0.01
  YS02001907YS02006553        0.62      0.62      0.67      0.01         0.01
  YS02001910YS02001907        0.34      0.34      0.49      0.01         0.01
  YS02001915YS02001910        0.27      0.27      0.34      0.01         0.01
  YS02001918YS02001915        0.20      0.20      0.27      0.01         0.01
  YS02001920YS02001918        0.20      0.20      0.21      0.01         0.01
  YS02001923YS02001920        0.17      0.17      0.21      0.01         0.01
  YS02001926YS02001923        0.01      0.01      0.01      0.01         0.01
  YS02001929YS02001926        0.01      0.01      0.01      0.01         0.01
  YS02006553YS02006556        0.42      0.42      0.51      0.01         0.01
  YS02006556YS02006558        0.45      0.45      0.52      0.01         0.01
  YS02006558YS02006561        0.25      0.41      0.25      0.57         0.25
  YS02006561YS02001783        0.18      0.18      0.37      0.01         0.01
  YS02163301YS02001633        0.93      0.93      0.98      0.01         0.01
  YS02163601YS02164001        0.95      0.95      1.02      0.06         0.01
  YS02164001YS02001641        0.94      0.95      0.95      0.48         0.44
  YSB1154YSB6556              0.51      0.51      0.63      0.01         0.01
  YSB1171HS02004479           0.41      0.41      0.64      0.01         0.01
  YSB1174YSB1171              0.57      0.57      0.86      0.01         0.01
  YSB6556YSB1171              0.51      0.51      1.01      0.01         0.01
  
  
  ***************
  Pumping Summary
  ***************
  
  ---------------------------------------------------------------------------------------------------------
                                                  Min       Avg       Max     Total     Power    % Time Off
                        Percent   Number of      Flow      Flow      Flow    Volume     Usage    Pump Curve
  Pump                 Utilized   Start-Ups       LPS       LPS       LPS  10^6 ltr     Kw-hr    Low   High
  ---------------------------------------------------------------------------------------------------------
  CC-R1                   55.21          17      0.00    231.76    683.00     2.949     56.95    0.0   54.2
  CC-R2                   56.22          20      0.00    102.31    683.00     1.323     25.22    0.0   62.1
  CC-S1                   79.17          10      0.00    132.44    200.00     2.184     11.73    0.0    3.3
  CC-S2                   79.97          14      0.00     45.37    200.00     1.102      5.81    0.0    3.3
  JK-R1                   41.77          20      0.00     75.45   1000.00     1.163     16.22    0.0    0.0
  JK-R2                   40.50          12      0.00     64.34   1000.00     0.971     12.24    0.0    0.0
  JK-S                    62.66          30      0.00     22.98    300.00     0.498      6.67    0.0    0.0
  XR-1                    97.91           2      0.00     95.00     95.00     2.679      9.60    0.0    0.0
  XR-2                    93.94           2      0.00     95.00     95.00     2.570      8.76    0.0    0.0
  XR-3                     0.00           1      0.00     95.00     95.00     0.000      0.00    0.0    0.0
  XR-4                     0.00           1      0.00     95.00     95.00     0.000      0.00    0.0    0.0
  

  Analysis begun on:  Mon Jul  3 13:25:23 2023
  Analysis ended on:  Mon Jul  3 13:25:42 2023
  Total elapsed time: 00:00:19