
  OWA STORM WATER MANAGEMENT MODEL - VERSION v5.1.14 (OWA 2022-07-31)
  --------------------------------------------------------------

  WARNING 04: minimum elevation drop used for Conduit WS02004404WS02004405
  WARNING 03: negative offset ignored for Link YS02001904YS02001907
  
  *********************************************************
  NOTE: The summary statistics displayed in this report are
  based on results found at every computational time step,  
  not just on results from each reporting time step.
  *********************************************************
  
  ****************
  Analysis Options
  ****************
  Flow Units ............... LPS
  Process Models:
    Rainfall/Runoff ........ YES
    RDII ................... NO
    Snowmelt ............... NO
    Groundwater ............ NO
    Flow Routing ........... YES
    Ponding Allowed ........ NO
    Water Quality .......... NO
  Infiltration Method ...... HORTON
  Flow Routing Method ...... DYNWAVE
  Surcharge Method ......... EXTRAN
  Starting Date ............ 08/28/2015 08:00:00
  Ending Date .............. 08/28/2015 16:00:00
  Antecedent Dry Days ...... 8.0
  Report Time Step ......... 00:01:00
  Wet Time Step ............ 00:01:00
  Dry Time Step ............ 00:01:00
  Routing Time Step ........ 30.00 sec
  Variable Time Step ....... YES
  Maximum Trials ........... 8
  Number of Threads ........ 1
  Head Tolerance ........... 0.001500 m
  
  
  **************************        Volume         Depth
  Runoff Quantity Continuity     hectare-m            mm
  **************************     ---------       -------
  Initial LID Storage ......         0.072         1.184
  Total Precipitation ......         3.192        52.691
  Evaporation Loss .........         0.000         0.000
  Infiltration Loss ........         0.193         3.188
  Surface Runoff ...........         2.414        39.849
  Final Storage ............         0.658        10.859
  Continuity Error (%) .....        -0.039
  
  
  **************************        Volume        Volume
  Flow Routing Continuity        hectare-m      10^6 ltr
  **************************     ---------     ---------
  Dry Weather Inflow .......         0.630         6.296
  Wet Weather Inflow .......         2.414        24.138
  Groundwater Inflow .......         0.000         0.000
  RDII Inflow ..............         0.000         0.000
  External Inflow ..........         0.105         1.045
  External Outflow .........         2.113        21.134
  Flooding Loss ............         1.030        10.299
  Evaporation Loss .........         0.000         0.000
  Exfiltration Loss ........         0.000         0.000
  Initial Stored Volume ....         0.303         3.031
  Final Stored Volume ......         0.318         3.185
  Continuity Error (%) .....        -0.311
  
  
  *************************
  Highest Continuity Errors
  *************************
  Node YS02001583 (-14.36%)
  Node YS02001884 (4.88%)
  Node WS02006256 (2.24%)
  Node HS02004842 (1.86%)
  Node WS02006252 (-1.67%)
  
  
  ***************************
  Time-Step Critical Elements
  ***************************
  Link WS02006280WS02006229 (63.25%)
  Link WS02004404WS02004405 (7.67%)
  Link WS02006238WS02006235 (6.85%)
  Link YS02001791YS02001793 (5.61%)
  Link WS02006252WS02006251 (3.64%)
  
  
  ********************************
  Highest Flow Instability Indexes
  ********************************
  Link WS02006113WS02006111 (26)
  Link WS02004404WS02004405 (22)
  Link WS02006238WS02006235 (20)
  Link WS02006256WS02006235 (20)
  Link WS02004403WS02004404 (20)
  
  
  *************************
  Routing Time Step Summary
  *************************
  Minimum Time Step           :     0.00 sec
  Average Time Step           :     2.84 sec
  Maximum Time Step           :     6.46 sec
  Percent in Steady State     :    -0.00
  Average Iterations per Step :     3.61
  Percent Not Converging      :    18.28
  
  
  ***************************
  Subcatchment Runoff Summary
  ***************************
  
  ------------------------------------------------------------------------------------------------------------------------------
                            Total      Total      Total      Total     Imperv       Perv      Total       Total     Peak  Runoff
                           Precip      Runon       Evap      Infil     Runoff     Runoff     Runoff      Runoff   Runoff   Coeff
  Subcatchment                 mm         mm         mm         mm         mm         mm         mm    10^6 ltr      LPS
  ------------------------------------------------------------------------------------------------------------------------------
  sub0                      52.69       0.00       0.00       0.97      47.76       2.72      50.48        0.04    34.06   0.958
  sub1                      52.69       0.00       0.00       1.45      40.92       3.75      44.67        0.30   202.25   0.848
  sub10                     52.69       0.00       0.00       0.93      38.35       2.50      40.85        0.45   321.36   0.775
  sub11                     52.69       0.00       0.00       0.85      35.65       2.33      37.98        0.44   340.29   0.721
  sub12                     52.69       0.00       0.00       1.49      36.24       4.07      40.31        0.35   289.92   0.765
  sub14                     52.69       0.00       0.00       0.92      33.76       2.51      36.27        0.35   261.22   0.688
  sub15                     52.69       0.00       0.00       4.12      30.35       9.23      39.58        0.68   438.54   0.751
  sub16                     52.69       0.00       0.00       4.39      29.60      10.58      40.18        0.42   301.33   0.763
  sub17                     52.69       0.00       0.00       4.70      32.67      11.09      43.76        0.38   260.31   0.831
  sub2                      52.69       0.00       0.00       6.49      29.91      11.57      41.48        0.39   201.68   0.787
  sub22                     52.69       0.00       0.00       7.29      28.33      14.65      42.98        2.72  1585.44   0.816
  sub23                     52.69       0.00       0.00       5.49      29.17      12.10      41.27        1.97  1259.24   0.783
  sub3                      52.69       0.00       0.00       6.94      29.61      10.95      40.57        0.91   427.36   0.770
  sub4                      52.69       0.00       0.00       1.57      40.29       3.56      43.85        0.91   466.62   0.832
  sub5                      52.69       0.00       0.00       0.83      39.59       2.24      41.82        0.47   329.71   0.794
  sub60                     52.69       0.00       0.00       1.32      34.86       3.56      38.42        0.50   391.89   0.729
  sub61                     52.69       0.00       0.00       2.02      34.83       5.30      40.14        0.74   566.33   0.762
  sub62                     52.69       0.00       0.00       0.90      37.13       2.42      39.55        1.08   765.88   0.751
  sub63                     52.69       0.00       0.00       3.68      29.83       8.83      38.67        0.88   617.83   0.734
  sub64                     52.69       0.00       0.00       1.77      33.97       4.39      38.36        0.92   612.89   0.728
  sub65                     52.69       0.00       0.00       1.62      36.66       4.01      40.66        1.12   709.42   0.772
  sub66                     52.69       0.00       0.00       4.27      28.84       7.84      36.68        1.71   878.52   0.696
  sub67                     52.69       0.00       0.00       0.90      38.07       2.50      40.57        0.75   614.55   0.770
  sub68                     52.69       0.00       0.00       1.55      33.62       4.07      37.69        1.04   767.92   0.715
  sub69                     52.69       0.00       0.00       1.39      35.42       4.88      40.29        1.49   926.17   0.765
  sub7                      52.69       0.00       0.00       0.98      36.18       2.69      38.88        0.13   103.01   0.738
  sub70                     52.69       0.00       0.00       4.65      28.37      10.01      38.38        1.11   506.52   0.728
  sub71                     52.69       0.00       0.00       0.83      33.73       2.19      35.91        0.94   625.42   0.682
  sub72                     52.69       0.00       0.00       0.79      36.43       2.03      38.46        0.53   314.20   0.730
  sub8                      52.69       0.00       0.00       0.96      35.16       2.61      37.78        0.24   183.90   0.717
  sub9                      52.69       0.00       0.00       0.93      34.09       2.53      36.62        0.18   133.92   0.695
  

  ***********************
  LID Performance Summary
  ***********************

  --------------------------------------------------------------------------------------------------------------------
                                         Total      Evap     Infil   Surface    Drain    Initial     Final  Continuity
                                        Inflow      Loss      Loss   Outflow   Outflow   Storage   Storage       Error
  Subcatchment      LID Control             mm        mm        mm        mm        mm        mm        mm           %
  --------------------------------------------------------------------------------------------------------------------
  sub1              GreenRoof            52.69      0.00      0.00      0.00      0.00      7.05     59.79       -0.07
  sub10             GreenRoof            52.69      0.00      0.00      0.00      0.00      7.05     59.79       -0.07
  sub11             GreenRoof            52.69      0.00      0.00      0.00      0.00      7.05     59.79       -0.07
  sub12             GreenRoof            52.69      0.00      0.00      0.00      0.00      7.05     59.79       -0.07
  sub14             GreenRoof            52.69      0.00      0.00      0.00      0.00      7.05     59.79       -0.07
  sub15             GreenRoof            52.69      0.00      0.00      0.00      0.00      7.05     59.79       -0.07
  sub16             GreenRoof            52.69      0.00      0.00      0.00      0.00      7.05     59.79       -0.07
  sub17             GreenRoof            52.69      0.00      0.00      0.00      0.00      7.05     59.79       -0.07
  sub2              GreenRoof            52.69      0.00      0.00      0.00      0.00      7.05     59.79       -0.07
  sub22             GreenRoof            52.69      0.00      0.00      0.00      0.00      7.05     59.79       -0.07
  sub23             GreenRoof            52.69      0.00      0.00      0.00      0.00      7.05     59.79       -0.07
  sub3              GreenRoof            52.69      0.00      0.00      0.00      0.00      7.05     59.79       -0.07
  sub4              GreenRoof            52.69      0.00      0.00      0.00      0.00      7.05     59.79       -0.07
  sub5              GreenRoof            52.69      0.00      0.00      0.00      0.00      7.05     59.79       -0.07
  sub60             GreenRoof            52.69      0.00      0.00      0.00      0.00      7.05     59.79       -0.07
  sub61             GreenRoof            52.69      0.00      0.00      0.00      0.00      7.05     59.79       -0.07
  sub62             GreenRoof            52.69      0.00      0.00      0.00      0.00      7.05     59.79       -0.07
  sub63             GreenRoof            52.69      0.00      0.00      0.00      0.00      7.05     59.79       -0.07
  sub64             GreenRoof            52.69      0.00      0.00      0.00      0.00      7.05     59.79       -0.07
  sub65             GreenRoof            52.69      0.00      0.00      0.00      0.00      7.05     59.79       -0.07
  sub66             GreenRoof            52.69      0.00      0.00      0.00      0.00      7.05     59.79       -0.07
  sub67             GreenRoof            52.69      0.00      0.00      0.00      0.00      7.05     59.79       -0.07
  sub68             GreenRoof            52.69      0.00      0.00      0.00      0.00      7.05     59.79       -0.07
  sub69             GreenRoof            52.69      0.00      0.00      0.00      0.00      7.05     59.79       -0.07
  sub7              GreenRoof            52.69      0.00      0.00      0.00      0.00      7.05     59.79       -0.07
  sub70             GreenRoof            52.69      0.00      0.00      0.00      0.00      7.05     59.79       -0.07
  sub71             GreenRoof            52.69      0.00      0.00      0.00      0.00      7.05     59.79       -0.07
  sub72             GreenRoof            52.69      0.00      0.00      0.00      0.00      7.05     59.79       -0.07
  sub8              GreenRoof            52.69      0.00      0.00      0.00      0.00      7.05     59.79       -0.07
  sub9              GreenRoof            52.69      0.00      0.00      0.00      0.00      7.05     59.79       -0.07
  
  ******************
  Node Depth Summary
  ******************
  
  ---------------------------------------------------------------------------------
                                 Average  Maximum  Maximum  Time of Max    Reported
                                   Depth    Depth      HGL   Occurrence   Max Depth
  Node                 Type       Meters   Meters   Meters  days hr:min      Meters
  ---------------------------------------------------------------------------------
  HS02004478           JUNCTION     0.23     1.57    10.80     0  01:49        1.55
  HS02004479           JUNCTION     0.31     1.68    10.88     0  01:49        1.66
  HS02004480           JUNCTION     0.28     1.65    10.89     0  01:49        1.62
  HS02004770           JUNCTION     0.28     1.42    11.25     0  01:46        1.42
  HS02004777           JUNCTION     0.30     1.48    11.28     0  01:46        1.48
  HS02004785           JUNCTION     0.20     1.49    11.39     0  01:46        1.40
  HS02004788           JUNCTION     0.16     1.42    11.32     0  01:46        1.42
  HS02004792           JUNCTION     0.22     1.60    11.12     0  01:45        1.60
  HS02004799           JUNCTION     0.34     1.76    10.97     0  01:47        1.76
  HS02004802           JUNCTION     0.33     1.77    10.90     0  01:49        1.70
  HS02004807           JUNCTION     0.30     1.92    11.09     0  01:47        1.75
  HS02004817           JUNCTION     0.60     2.44    11.29     0  01:47        2.12
  HS02004824           JUNCTION     0.16     2.01    11.41     0  01:47        1.64
  HS02004830           JUNCTION     0.16     2.03    11.50     0  01:47        1.58
  HS02004837           JUNCTION     0.13     2.02    11.60     0  01:47        1.44
  HS02004842           JUNCTION     0.43     2.22    11.49     0  01:49        1.76
  HS02004848           JUNCTION     0.11     1.93    11.53     0  01:49        1.44
  HS02004852           JUNCTION     0.12     1.99    11.50     0  01:49        1.50
  HS02004856           JUNCTION     0.17     2.04    11.47     0  01:49        1.56
  HS02004862           JUNCTION     0.13     2.00    11.38     0  01:49        1.55
  HS02004870           JUNCTION     0.12     2.10    11.39     0  01:49        1.56
  HS02004876           JUNCTION     0.17     2.26    11.29     0  01:49        1.69
  HS02004881           JUNCTION     0.11     2.15    11.18     0  01:49        1.50
  HS02004901           JUNCTION     0.29     1.42    11.24     0  01:46        1.42
  WS02001211           JUNCTION     0.63     0.84     5.68     0  01:52        0.83
  WS02001212           JUNCTION     0.38     0.60     5.66     0  01:51        0.58
  WS02001213           JUNCTION     0.59     0.89     5.66     0  01:51        0.88
  WS02003059           JUNCTION     0.65     0.97     5.65     0  01:53        0.95
  WS02003060           JUNCTION     0.37     0.69     5.62     0  01:54        0.69
  WS02003066           JUNCTION     0.22     0.45     6.01     0  01:52        0.45
  WS02003067           JUNCTION     0.53     0.90     6.22     0  01:46        0.89
  WS02003069           JUNCTION     0.42     0.78     5.37     0  01:54        0.78
  WS02003072           JUNCTION     0.48     0.81     5.18     0  01:55        0.81
  WS02003073           JUNCTION     0.29     0.52     4.58     0  01:56        0.52
  WS02004138           JUNCTION     0.13     0.14     7.39     0  00:29        0.14
  WS02004139           JUNCTION     0.57     0.76     5.67     0  01:53        0.76
  WS02004401           JUNCTION     0.74     2.12     8.12     0  01:44        1.99
  WS02004402           JUNCTION     0.76     2.06     8.02     0  01:44        1.78
  WS02004403           JUNCTION     0.76     1.97     7.90     0  01:44        1.71
  WS02004404           JUNCTION     0.83     1.95     7.80     0  01:44        1.74
  WS02004405           JUNCTION     0.82     1.85     7.70     0  01:44        1.66
  WS02004406           JUNCTION     0.81     1.56     7.39     0  01:44        1.55
  WS02004407           JUNCTION     0.25     0.91     7.22     0  01:49        0.91
  WS02004409           JUNCTION     0.50     1.38     7.15     0  01:49        1.36
  WS02004410           JUNCTION     0.51     1.29     7.01     0  01:49        1.28
  WS02004411           JUNCTION     0.52     1.27     6.95     0  01:46        1.19
  WS02004412           JUNCTION     0.52     1.13     6.77     0  01:46        1.10
  WS02004413           JUNCTION     0.66     1.15     6.62     0  01:46        1.14
  WS02006109           JUNCTION     0.94     2.64     9.26     0  01:47        2.64
  WS02006110           JUNCTION     0.88     2.65     9.23     0  01:44        2.65
  WS02006111           JUNCTION     0.41     2.27     8.98     0  01:44        2.27
  WS02006112           JUNCTION     0.95     2.68     8.56     0  01:44        2.68
  WS02006113           JUNCTION     0.47     2.34     9.24     0  01:44        2.34
  WS02006115           JUNCTION     0.66     2.36     8.50     0  01:44        2.36
  WS02006116           JUNCTION     0.73     2.28     8.32     0  01:44        2.27
  WS02006228           JUNCTION     0.99     3.03     9.68     0  01:51        3.03
  WS02006229           JUNCTION     1.00     3.22     9.91     0  01:49        3.20
  WS02006230           JUNCTION     0.92     2.65     9.39     0  01:44        2.65
  WS02006231           JUNCTION     0.64     2.19     9.31     0  02:10        2.19
  WS02006232           JUNCTION     0.72     2.18     9.22     0  01:44        2.18
  WS02006234           JUNCTION     0.60     1.96     9.12     0  01:41        1.96
  WS02006235           JUNCTION     0.61     2.00     9.16     0  01:41        2.00
  WS02006238           JUNCTION     0.63     2.07     9.22     0  02:45        1.96
  WS02006239           JUNCTION     0.56     2.03     9.24     0  01:41        2.01
  WS02006240           JUNCTION     0.52     2.10     9.39     0  01:41        1.88
  WS02006242           JUNCTION     0.55     1.55     8.82     0  00:05        1.55
  WS02006243           JUNCTION     0.44     1.48     8.90     0  00:05        1.44
  WS02006245           JUNCTION     0.43     1.56     9.04     0  02:50        1.35
  WS02006247           JUNCTION     0.43     1.47     8.97     0  01:43        1.47
  WS02006248           JUNCTION     0.38     1.10     8.69     0  00:05        1.10
  WS02006249           JUNCTION     0.40     1.09     8.69     0  00:05        1.09
  WS02006251           JUNCTION     0.46     2.21     9.88     0  01:49        2.08
  WS02006252           JUNCTION     0.27     1.50     9.74     0  00:00        1.50
  WS02006253           JUNCTION     0.54     3.52    11.16     0  02:45        2.81
  WS02006256           JUNCTION     0.86     2.35     9.28     0  00:00        2.35
  WS02006280           JUNCTION     0.30     1.74    10.01     0  01:49        1.71
  WS02006284           JUNCTION     0.56     1.94    10.34     0  01:49        1.90
  WS02006287           JUNCTION     0.30     1.73    10.68     0  01:49        1.70
  WSF200               JUNCTION     0.21     0.52     5.76     0  01:54        0.52
  YS02001580           JUNCTION     0.07     1.05     9.59     0  01:47        0.77
  YS02001583           JUNCTION     0.11     1.14     9.64     0  01:47        0.82
  YS02001586           JUNCTION     0.18     1.13     9.30     0  01:47        1.13
  YS02001590           JUNCTION     0.27     1.40     9.26     0  01:46        1.37
  YS02001593           JUNCTION     0.20     1.43     9.29     0  01:46        1.29
  YS02001596           JUNCTION     0.28     1.76     9.18     0  01:46        1.66
  YS02001600           JUNCTION     0.35     1.87     9.00     0  01:46        1.86
  YS02001601           JUNCTION     0.54     2.06     8.90     0  01:46        2.06
  YS02001602           JUNCTION     0.45     1.87     8.77     0  01:47        1.87
  YS02001605           JUNCTION     0.42     1.78     8.68     0  01:47        1.77
  YS02001607           JUNCTION     0.41     1.65     8.50     0  01:47        1.65
  YS02001610           JUNCTION     0.45     1.68     8.48     0  01:47        1.68
  YS02001613           JUNCTION     0.41     1.70     8.54     0  01:47        1.68
  YS02001616           JUNCTION     0.34     1.61     8.52     0  01:47        1.60
  YS02001619           JUNCTION     0.31     1.61     8.54     0  01:47        1.61
  YS02001622           JUNCTION     0.30     1.62     8.52     0  01:47        1.57
  YS02001625           JUNCTION     0.56     1.78     8.38     0  01:47        1.78
  YS02001629           JUNCTION     0.42     1.85     8.40     0  01:47        1.85
  YS02001633           JUNCTION     0.50     2.04     8.49     0  01:49        2.02
  YS02001641           JUNCTION     0.47     1.97     8.41     0  01:51        1.97
  YS02001644           JUNCTION     0.47     1.92     8.35     0  01:49        1.92
  YS02001647           JUNCTION     0.24     1.76     8.37     0  01:50        1.68
  YS02001649           JUNCTION     0.27     1.93     8.32     0  01:50        1.83
  YS02001652           JUNCTION     0.16     1.82     8.42     0  01:49        1.67
  YS02001655           JUNCTION     0.11     1.84     8.69     0  01:49        1.46
  YS02001658           JUNCTION     0.08     1.80     8.94     0  01:50        1.21
  YS02001661           JUNCTION     0.13     1.05     8.45     0  01:51        1.00
  YS02001664           JUNCTION     0.06     0.52     8.45     0  01:51        0.30
  YS02001745           JUNCTION     0.05     0.84     8.36     0  01:50        0.78
  YS02001748           JUNCTION     0.07     1.80     8.88     0  01:50        1.16
  YS02001751           JUNCTION     0.08     1.77     8.65     0  01:50        1.25
  YS02001754           JUNCTION     0.11     1.75     8.36     0  01:50        1.46
  YS02001757           JUNCTION     0.26     1.94     8.21     0  01:50        1.81
  YS02001759           JUNCTION     0.21     1.91     8.28     0  01:51        1.78
  YS02001762           JUNCTION     0.20     1.92     8.32     0  01:51        1.78
  YS02001765           JUNCTION     0.18     1.90     8.35     0  01:51        1.76
  YS02001767           JUNCTION     0.18     1.89     8.38     0  01:51        1.75
  YS02001770           JUNCTION     0.20     1.94     8.44     0  01:50        1.81
  YS02001774           JUNCTION     0.26     2.00     8.42     0  01:50        1.89
  YS02001779           JUNCTION     0.10     1.68     8.37     0  01:49        1.68
  YS02001783           JUNCTION     0.23     1.29     7.43     0  01:49        1.21
  YS02001784           JUNCTION     0.25     1.16     7.23     0  01:49        1.11
  YS02001786           JUNCTION     0.21     1.00     7.03     0  01:48        0.86
  YS02001788           JUNCTION     0.15     0.62     6.60     0  01:49        0.62
  YS02001790           JUNCTION     0.18     0.72     6.37     0  01:50        0.72
  YS02001791           JUNCTION     0.11     0.44     5.91     0  01:51        0.43
  YS02001793           JUNCTION     0.06     0.30     5.13     0  01:53        0.28
  YS02001882           JUNCTION     0.29     1.83     8.55     0  01:48        1.62
  YS02001884           JUNCTION     0.38     1.89     8.51     0  01:48        1.72
  YS02001887           JUNCTION     0.45     1.84     8.38     0  01:48        1.80
  YS02001890           JUNCTION     0.48     1.81     8.32     0  01:48        1.81
  YS02001895           JUNCTION     0.26     1.65     8.40     0  01:48        1.60
  YS02001898           JUNCTION     0.26     1.77     8.51     0  01:48        1.66
  YS02001901           JUNCTION     0.37     1.81     8.42     0  01:49        1.81
  YS02001904           JUNCTION     0.36     1.76     8.39     0  01:49        1.76
  YS02001907           JUNCTION     0.67     1.96     8.25     0  01:48        1.96
  YS02001910           JUNCTION     0.47     1.99     8.50     0  01:49        1.96
  YS02001915           JUNCTION     0.28     1.94     8.66     0  01:49        1.91
  YS02001918           JUNCTION     0.14     1.81     8.88     0  01:48        1.81
  YS02001920           JUNCTION     0.22     2.14     9.15     0  01:49        1.81
  YS02001923           JUNCTION     0.10     2.03     9.29     0  01:49        1.52
  YS02001926           JUNCTION     0.15     1.90     9.35     0  01:49        1.32
  YS02001929           JUNCTION     0.08     1.78     9.47     0  01:49        1.09
  YS02006553           JUNCTION     0.67     2.04     8.32     0  01:49        2.04
  YS02006556           JUNCTION     0.65     2.05     8.37     0  01:49        2.05
  YS02006558           JUNCTION     0.69     2.06     8.33     0  01:49        2.06
  YS02006561           JUNCTION     0.14     0.98     7.64     0  01:49        0.88
  YS02163301           JUNCTION     0.44     1.93     8.45     0  01:49        1.92
  YS02163601           JUNCTION     0.53     2.06     8.46     0  01:51        2.06
  YS02164001           JUNCTION     0.46     2.00     8.46     0  01:51        2.00
  YSB1154              JUNCTION     0.44     1.91    10.97     0  01:47        1.88
  YSB1171              JUNCTION     0.59     1.95    10.85     0  01:47        1.95
  YSB1174              JUNCTION     0.40     1.80    10.91     0  01:49        1.80
  YSB6556              JUNCTION     0.34     1.76    10.93     0  01:47        1.72
  CC-1                 OUTFALL      0.00     0.00     0.00     0  00:00        0.00
  CC-2                 OUTFALL      0.00     0.00     0.00     0  00:00        0.00
  JK-1                 OUTFALL      0.00     0.00     0.00     0  00:00        0.00
  JK-2                 OUTFALL      0.00     0.00     0.00     0  00:00        0.00
  WSC                  OUTFALL      0.29     0.51     1.18     0  01:56        0.51
  CC-storage           STORAGE      0.52     0.80     6.30     0  00:00        0.76
  JK-storage           STORAGE      1.35     4.24     5.04     0  01:50        4.24
  XR-storage           STORAGE      7.86     9.26     7.26     0  08:00        9.26
  
  
  *******************
  Node Inflow Summary
  *******************
  
  -------------------------------------------------------------------------------------------------
                                  Maximum  Maximum                  Lateral       Total        Flow
                                  Lateral    Total  Time of Max      Inflow      Inflow     Balance
                                   Inflow   Inflow   Occurrence      Volume      Volume       Error
  Node                 Type           LPS      LPS  days hr:min    10^6 ltr    10^6 ltr     Percent
  -------------------------------------------------------------------------------------------------
  HS02004478           JUNCTION      0.00  2277.22     0  01:51           0        6.92      -0.010
  HS02004479           JUNCTION      0.00   539.46     0  01:48           0       0.647       0.139
  HS02004480           JUNCTION      0.00  2191.83     0  01:47           0        5.34       0.046
  HS02004770           JUNCTION   1259.24  1259.24     0  01:51        1.97        2.17       0.135
  HS02004777           JUNCTION      0.03   848.55     0  01:46    0.000864        1.59       0.336
  HS02004785           JUNCTION      0.15   870.80     0  01:46     0.00432        1.58       0.022
  HS02004788           JUNCTION    440.21  1048.84     0  01:46       0.729        2.31      -0.042
  HS02004792           JUNCTION   1585.72  2339.21     0  01:51        2.72        5.03       0.007
  HS02004799           JUNCTION    261.22  1751.47     0  01:47       0.345        4.72       0.055
  HS02004802           JUNCTION      0.00   936.02     0  01:51           0        1.61       0.248
  HS02004807           JUNCTION    340.29   934.81     0  01:51       0.441        1.66       0.255
  HS02004817           JUNCTION      0.60   616.36     0  01:52      0.0173        1.27       1.333
  HS02004824           JUNCTION    466.67   781.51     0  01:47       0.916        1.47       0.032
  HS02004830           JUNCTION      0.15   779.09     0  01:47     0.00432       0.761       0.169
  HS02004837           JUNCTION    327.71  1027.53     0  01:47       0.633        1.05       0.063
  HS02004842           JUNCTION      0.00  1047.09     0  01:47           0       0.708       1.896
  HS02004848           JUNCTION    427.36  1323.28     0  01:47       0.913        1.45       0.005
  HS02004852           JUNCTION      0.00  1222.61     0  01:48           0         1.3       0.010
  HS02004856           JUNCTION    133.92  1348.63     0  01:48       0.176        1.48       0.114
  HS02004862           JUNCTION    201.88  1525.24     0  01:48       0.392        1.87      -0.002
  HS02004870           JUNCTION    183.90  1660.86     0  01:48       0.241        2.11       0.030
  HS02004876           JUNCTION    202.25  1724.92     0  01:49       0.297        2.41      -0.040
  HS02004881           JUNCTION    103.01  1827.69     0  01:49       0.131        2.55      -0.048
  HS02004901           JUNCTION    301.33   497.63     0  01:53       0.421        0.62       0.289
  WS02001211           JUNCTION      7.35   271.59     0  01:50       0.212        5.44       0.610
  WS02001212           JUNCTION      0.00   254.50     0  01:52           0        5.41       0.291
  WS02001213           JUNCTION      0.00   254.28     0  01:52           0         5.4       0.329
  WS02003059           JUNCTION      0.00   237.94     0  01:54           0         5.4       0.590
  WS02003060           JUNCTION     16.53  1543.77     0  01:53       0.476        12.3       0.118
  WS02003066           JUNCTION      0.00  1300.12     0  01:50           0         6.5       0.022
  WS02003067           JUNCTION      0.00  1291.33     0  01:50           0         6.5       0.067
  WS02003069           JUNCTION      0.32  1516.34     0  01:54     0.00922        12.3       0.125
  WS02003072           JUNCTION      0.00  1510.43     0  01:55           0        12.3       0.169
  WS02003073           JUNCTION      1.82  1509.50     0  01:55      0.0524        12.3       0.174
  WS02004138           JUNCTION      0.00   380.00     0  00:00           0        5.25       0.054
  WS02004139           JUNCTION      0.32   201.52     0  01:49     0.00924        5.26       0.508
  WS02004401           JUNCTION      0.00  1290.47     0  01:51           0        6.61       0.157
  WS02004402           JUNCTION      0.00  1290.45     0  01:50           0         6.6       0.162
  WS02004403           JUNCTION      0.00  1290.48     0  01:50           0        6.59       0.156
  WS02004404           JUNCTION      0.16  1291.78     0  01:50     0.00467        6.58       0.131
  WS02004405           JUNCTION      0.04  1291.13     0  01:50      0.0011        6.57       0.194
  WS02004406           JUNCTION      0.00  1291.58     0  01:50           0        6.56       0.325
  WS02004407           JUNCTION      0.00  1291.23     0  01:50           0        6.54       0.023
  WS02004409           JUNCTION      0.00  1291.02     0  01:50           0        6.54       0.046
  WS02004410           JUNCTION      0.00  1291.51     0  01:50           0        6.54       0.069
  WS02004411           JUNCTION      0.00  1291.17     0  01:50           0        6.53       0.089
  WS02004412           JUNCTION      0.00  1291.33     0  01:50           0        6.53       0.121
  WS02004413           JUNCTION      0.00  1291.25     0  01:50           0        6.52       0.210
  WS02006109           JUNCTION      1.23  1274.73     0  01:51      0.0354        6.44       0.170
  WS02006110           JUNCTION      0.00  1116.27     0  02:04           0        6.27       0.116
  WS02006111           JUNCTION      0.00  1116.58     0  02:04           0        6.26       0.017
  WS02006112           JUNCTION    260.31  1290.26     0  01:50       0.375        6.64       0.290
  WS02006113           JUNCTION      0.00  1116.48     0  02:04           0        6.27       0.035
  WS02006115           JUNCTION      0.00  1290.16     0  01:50           0        6.62       0.099
  WS02006116           JUNCTION      0.00  1290.35     0  01:50           0        6.61       0.061
  WS02006228           JUNCTION      0.00  1274.63     0  01:51           0        6.41       0.091
  WS02006229           JUNCTION      0.00  2277.22     0  01:50           0        8.15       0.092
  WS02006230           JUNCTION     10.28  1012.39     0  01:50       0.296        3.01       0.300
  WS02006231           JUNCTION      0.00   453.35     0  01:51           0        2.05      -0.144
  WS02006232           JUNCTION      0.00   453.45     0  01:48           0        2.03       0.256
  WS02006234           JUNCTION      0.00   453.03     0  02:00           0           2      -0.195
  WS02006235           JUNCTION      0.00   453.68     0  00:06           0        1.93       0.202
  WS02006238           JUNCTION      0.00   461.65     0  00:06           0        1.88      -0.183
  WS02006239           JUNCTION      0.00   488.54     0  00:06           0        1.86      -0.245
  WS02006240           JUNCTION      0.00   568.63     0  00:06           0        1.85      -0.099
  WS02006242           JUNCTION      0.00   620.39     0  00:05           0        1.85      -0.041
  WS02006243           JUNCTION      0.00   663.71     0  00:05           0        1.56      -0.611
  WS02006245           JUNCTION      0.00   668.41     0  00:05           0        1.58       0.906
  WS02006247           JUNCTION      0.00   668.71     0  00:05           0        1.57      -0.291
  WS02006248           JUNCTION      0.00   669.97     0  00:05           0        1.71      -0.391
  WS02006249           JUNCTION      0.00  1342.34     0  01:49           0        3.49       0.318
  WS02006251           JUNCTION      0.08  1612.68     0  01:49     0.00222        3.66      -0.054
  WS02006252           JUNCTION      0.00  2000.00     0  01:30           0        2.24      -1.644
  WS02006253           JUNCTION     34.06  1610.42     0  01:49      0.0409        2.73      -0.188
  WS02006256           JUNCTION      0.00  1500.00     0  00:20           0       0.977       2.287
  WS02006280           JUNCTION      0.00  2275.79     0  01:50           0        6.91      -0.005
  WS02006284           JUNCTION      0.10  2275.33     0  01:50     0.00275        6.91       0.012
  WS02006287           JUNCTION      0.00  2276.57     0  01:50           0        6.91       0.018
  WSF200               JUNCTION      0.00  1299.10     0  01:50           0         6.5       0.011
  YS02001580           JUNCTION      0.00   201.97     0  01:47           0     0.00437      -4.296
  YS02001583           JUNCTION      0.00   287.03     0  01:47           0      0.0145     -12.555
  YS02001586           JUNCTION    506.52   506.52     0  01:53        1.11        1.12       0.175
  YS02001590           JUNCTION      0.00   318.96     0  02:01           0       0.986      -0.056
  YS02001593           JUNCTION      0.00   318.18     0  02:01           0       0.986       0.010
  YS02001596           JUNCTION      0.00   318.03     0  02:02           0       0.986      -0.013
  YS02001600           JUNCTION      0.00   317.92     0  01:55           0       0.986       0.005
  YS02001601           JUNCTION    926.17  1243.61     0  01:51        1.49        2.48       0.036
  YS02001602           JUNCTION      0.00   577.76     0  01:47           0        1.79       0.020
  YS02001605           JUNCTION      0.00   578.00     0  01:47           0        1.73       0.021
  YS02001607           JUNCTION      0.00   577.49     0  01:47           0        1.73       0.108
  YS02001610           JUNCTION      0.00   539.54     0  01:47           0        1.73       0.129
  YS02001613           JUNCTION      0.00   513.41     0  02:11           0        1.51       0.090
  YS02001616           JUNCTION      0.00   513.46     0  02:11           0        1.51       0.010
  YS02001619           JUNCTION    878.52   936.46     0  02:05        1.71        3.21      -0.007
  YS02001622           JUNCTION      0.00   937.08     0  02:05           0         3.2      -0.004
  YS02001625           JUNCTION      0.00   941.84     0  01:52           0        3.21       0.266
  YS02001629           JUNCTION      0.00   937.07     0  02:04           0        2.87      -0.008
  YS02001633           JUNCTION    709.62  1432.44     0  01:48        1.13        3.97       0.083
  YS02001641           JUNCTION      0.00  1430.10     0  01:48           0        3.97       0.069
  YS02001644           JUNCTION    612.93  1945.95     0  01:48       0.922        4.88       0.067
  YS02001647           JUNCTION      0.00  1945.91     0  01:48           0        4.85       0.009
  YS02001649           JUNCTION      0.00  2239.87     0  01:49           0        5.74       0.006
  YS02001652           JUNCTION      0.00   750.37     0  01:52           0       0.882      -0.160
  YS02001655           JUNCTION      0.15   748.91     0  01:52     0.00443       0.883       0.021
  YS02001658           JUNCTION      0.00   763.90     0  01:50           0       0.878      -0.069
  YS02001661           JUNCTION      0.00   821.78     0  01:51           0       0.878       0.013
  YS02001664           JUNCTION    617.83   617.83     0  01:50       0.878       0.878      -0.006
  YS02001745           JUNCTION    391.90   512.09     0  01:50       0.505       0.506       0.229
  YS02001748           JUNCTION      0.04   668.94     0  01:50      0.0013        0.51      -0.389
  YS02001751           JUNCTION      0.01   496.81     0  01:51    0.000317       0.519       0.066
  YS02001754           JUNCTION      0.26   497.77     0  01:51     0.00749       0.532      -0.268
  YS02001757           JUNCTION      0.00  3466.12     0  01:51           0         8.1       0.018
  YS02001759           JUNCTION    566.37  1374.69     0  01:50       0.738        1.83      -0.010
  YS02001762           JUNCTION      0.00   805.67     0  01:50           0         1.1       0.006
  YS02001765           JUNCTION      0.00   800.06     0  01:50           0         1.1       0.033
  YS02001767           JUNCTION      0.54   795.16     0  01:50      0.0154         1.1      -0.025
  YS02001770           JUNCTION    766.03   781.39     0  01:50        1.09        1.13      -0.007
  YS02001774           JUNCTION      0.00   486.63     0  01:49           0      0.0649       1.658
  YS02001779           JUNCTION      0.01   469.94     0  01:49    0.000144      0.0235      -3.842
  YS02001783           JUNCTION      0.00  1154.05     0  01:49           0        2.89       0.006
  YS02001784           JUNCTION      1.06  1155.52     0  01:49      0.0305        2.92       0.017
  YS02001786           JUNCTION      0.06  1155.76     0  01:49     0.00162        2.92       0.018
  YS02001788           JUNCTION      0.07  1157.42     0  01:49     0.00204        2.92       0.010
  YS02001790           JUNCTION      0.15  1163.52     0  01:53     0.00446        2.93       0.024
  YS02001791           JUNCTION      0.00  1287.64     0  01:50           0        2.93      -0.022
  YS02001793           JUNCTION      0.00  1245.88     0  01:53           0        2.93       0.008
  YS02001882           JUNCTION      0.00    88.32     0  01:48           0      0.0123       4.142
  YS02001884           JUNCTION      0.00   159.75     0  01:47           0      0.0478       5.128
  YS02001887           JUNCTION    615.00   615.32     0  01:50       0.768       0.801       0.572
  YS02001890           JUNCTION      0.00   615.32     0  01:50           0        0.76       0.670
  YS02001895           JUNCTION      0.00   602.05     0  01:48           0       0.744       0.187
  YS02001898           JUNCTION      0.00   603.46     0  01:48           0       0.742      -0.011
  YS02001901           JUNCTION      0.00   605.31     0  01:48           0       0.745       0.427
  YS02001904           JUNCTION      0.00   603.29     0  01:48           0        0.75       0.400
  YS02001907           JUNCTION      0.00  1621.55     0  01:50           0         2.3       0.791
  YS02001910           JUNCTION      0.00  1088.74     0  01:50           0        1.56       0.475
  YS02001915           JUNCTION    625.44  1088.71     0  01:50        0.94        1.61       0.075
  YS02001918           JUNCTION      0.00   738.94     0  01:48           0       0.696      -0.026
  YS02001920           JUNCTION      2.87   679.28     0  01:49      0.0827       0.671       0.140
  YS02001923           JUNCTION      0.04   947.19     0  01:49     0.00109        0.57      -0.200
  YS02001926           JUNCTION      0.05  1219.40     0  01:49      0.0015        0.55      -0.541
  YS02001929           JUNCTION    314.20  1100.68     0  01:49       0.529       0.535      -0.665
  YS02006553           JUNCTION      0.00   805.48     0  02:01           0        1.88       0.638
  YS02006556           JUNCTION      0.00   805.18     0  02:01           0        1.89       0.433
  YS02006558           JUNCTION    768.80  1186.27     0  01:48        1.06        2.92       0.120
  YS02006561           JUNCTION      0.00  1193.38     0  01:48           0        2.89       0.000
  YS02163301           JUNCTION      0.00   939.57     0  02:05           0        2.86       0.056
  YS02163601           JUNCTION      0.11  1431.28     0  01:48     0.00317        3.96       0.122
  YS02164001           JUNCTION      0.00  1430.04     0  01:48           0        3.96       0.058
  YSB1154              JUNCTION    329.71   329.71     0  01:51       0.474       0.475       0.309
  YSB1171              JUNCTION      0.00   618.56     0  01:50           0       0.834       0.761
  YSB1174              JUNCTION    289.92   289.92     0  01:50       0.352       0.353       0.362
  YSB6556              JUNCTION      0.00   330.01     0  01:51           0       0.475       0.245
  CC-1                 OUTFALL       0.00  3415.00     0  00:05           0        1.19       0.000
  CC-2                 OUTFALL       0.00  3415.00     0  00:05           0        5.57       0.000
  JK-1                 OUTFALL       0.00  5000.00     0  01:40           0       0.936       0.000
  JK-2                 OUTFALL       0.00  5000.00     0  01:40           0        1.13       0.000
  WSC                  OUTFALL       0.00  1508.20     0  01:56           0        12.3       0.000
  CC-storage           STORAGE       0.00  3467.36     0  01:51           0        10.3      -0.195
  JK-storage           STORAGE       0.00  1353.66     0  01:50           0        3.08      -0.625
  XR-storage           STORAGE     200.00   200.00     0  00:00        5.76        6.36       0.001
  
  
  **********************
  Node Surcharge Summary
  **********************
  
  Surcharging occurs when water rises above the top of the highest conduit.
  ---------------------------------------------------------------------
                                               Max. Height   Min. Depth
                                   Hours       Above Crown    Below Rim
  Node                 Type      Surcharged         Meters       Meters
  ---------------------------------------------------------------------
  HS02004478           JUNCTION        0.35          0.655        0.285
  HS02004479           JUNCTION        0.46          0.878        0.172
  HS02004480           JUNCTION        0.50          0.943        0.157
  HS02004770           JUNCTION        0.43          0.720        0.000
  HS02004777           JUNCTION        0.43          0.780        0.000
  HS02004785           JUNCTION        0.39          0.790        0.000
  HS02004788           JUNCTION        0.37          0.720        0.000
  HS02004792           JUNCTION        0.47          0.900        0.000
  HS02004799           JUNCTION        0.56          1.060        0.000
  HS02004802           JUNCTION        0.50          1.061        0.149
  HS02004807           JUNCTION        0.48          1.220        0.000
  HS02004817           JUNCTION        0.95          1.740        0.000
  HS02004824           JUNCTION        0.37          1.310        0.000
  HS02004830           JUNCTION        0.35          1.330        0.000
  HS02004837           JUNCTION        0.28          1.320        0.020
  HS02004842           JUNCTION        0.42          1.517        0.003
  HS02004848           JUNCTION        0.26          1.231        0.139
  HS02004852           JUNCTION        0.30          1.289        0.131
  HS02004856           JUNCTION        0.25          1.272        0.028
  HS02004862           JUNCTION        0.31          1.300        0.000
  HS02004870           JUNCTION        0.30          1.400        0.000
  HS02004876           JUNCTION        0.37          1.560        0.000
  HS02004881           JUNCTION        0.32          1.450        0.000
  HS02004901           JUNCTION        0.43          0.720        0.000
  WS02004401           JUNCTION        1.20          1.117        0.543
  WS02004402           JUNCTION        1.23          1.061        0.679
  WS02004403           JUNCTION        1.24          0.973        1.057
  WS02004404           JUNCTION        1.38          0.950        1.830
  WS02004405           JUNCTION        1.35          0.853        1.947
  WS02004406           JUNCTION        1.32          0.562        1.888
  WS02004409           JUNCTION        0.69          0.375        1.985
  WS02004410           JUNCTION        0.67          0.288        2.252
  WS02004411           JUNCTION        0.63          0.265        2.265
  WS02004412           JUNCTION        0.57          0.133        2.177
  WS02004413           JUNCTION        0.93          0.149        2.051
  WS02006109           JUNCTION        1.60          1.820        0.000
  WS02006110           JUNCTION        1.44          1.736        0.114
  WS02006111           JUNCTION        0.88          1.462        0.408
  WS02006112           JUNCTION        1.50          1.680        0.000
  WS02006113           JUNCTION        0.89          1.544        0.386
  WS02006115           JUNCTION        1.09          1.354        0.896
  WS02006116           JUNCTION        1.10          1.223        1.067
  WS02006228           JUNCTION        1.58          2.200        0.000
  WS02006229           JUNCTION        0.66          1.040        0.030
  WS02006230           JUNCTION        1.33          1.570        0.000
  WS02006231           JUNCTION        1.34          1.479        0.051
  WS02006232           JUNCTION        1.44          1.480        0.000
  WS02006234           JUNCTION        1.31          1.240        0.000
  WS02006235           JUNCTION        1.33          1.290        0.000
  WS02006238           JUNCTION        1.34          1.354        0.076
  WS02006239           JUNCTION        1.28          1.290        0.000
  WS02006240           JUNCTION        1.24          1.390        0.000
  WS02006242           JUNCTION        1.27          0.820        0.000
  WS02006243           JUNCTION        1.15          0.770        0.000
  WS02006245           JUNCTION        1.11          0.850        0.000
  WS02006247           JUNCTION        1.11          0.760        0.000
  WS02006248           JUNCTION        1.05          0.380        0.000
  WS02006249           JUNCTION        1.07          0.390        0.000
  WS02006251           JUNCTION        0.74          1.180        0.000
  WS02006252           JUNCTION        1.05          1.100        0.000
  WS02006253           JUNCTION        0.82          2.480        0.000
  WS02006256           JUNCTION        5.34          2.050        0.000
  WS02006280           JUNCTION        0.58          0.690        0.090
  WS02006284           JUNCTION        0.52          0.661        0.139
  WS02006287           JUNCTION        0.43          0.729        0.161
  YS02001580           JUNCTION        0.39          0.450        0.000
  YS02001583           JUNCTION        0.39          0.500        0.000
  YS02001586           JUNCTION        0.48          0.510        0.000
  YS02001590           JUNCTION        0.55          0.750        0.000
  YS02001593           JUNCTION        0.54          0.806        0.034
  YS02001596           JUNCTION        0.63          1.029        0.041
  YS02001600           JUNCTION        0.74          1.190        0.000
  YS02001601           JUNCTION        1.07          1.440        0.000
  YS02001602           JUNCTION        0.95          1.270        0.000
  YS02001605           JUNCTION        0.90          1.180        0.000
  YS02001607           JUNCTION        0.47          0.654        0.026
  YS02001610           JUNCTION        0.50          0.680        0.000
  YS02001613           JUNCTION        0.47          0.700        0.000
  YS02001616           JUNCTION        0.43          0.610        0.000
  YS02001619           JUNCTION        0.42          0.610        0.000
  YS02001622           JUNCTION        0.41          0.620        0.000
  YS02001625           JUNCTION        0.58          0.780        0.000
  YS02001629           JUNCTION        0.32          0.470        0.000
  YS02001633           JUNCTION        0.58          1.019        0.041
  YS02001641           JUNCTION        0.48          0.972        0.128
  YS02001644           JUNCTION        0.43          0.920        0.000
  YS02001647           JUNCTION        0.24          0.763        0.137
  YS02001649           JUNCTION        0.27          0.931        0.119
  YS02001652           JUNCTION        0.19          0.794        0.336
  YS02001655           JUNCTION        0.12          0.843        0.357
  YS02001658           JUNCTION        0.04          0.801        0.499
  YS02001748           JUNCTION        0.01          0.722        0.468
  YS02001751           JUNCTION        0.06          0.774        0.426
  YS02001754           JUNCTION        0.12          0.698        0.452
  YS02001757           JUNCTION        0.25          0.944        0.266
  YS02001759           JUNCTION        0.22          0.912        0.298
  YS02001762           JUNCTION        0.21          0.916        0.234
  YS02001765           JUNCTION        0.19          0.896        0.204
  YS02001767           JUNCTION        0.18          0.887        0.143
  YS02001770           JUNCTION        0.17          0.914        0.006
  YS02001774           JUNCTION        0.21          1.000        0.050
  YS02001779           JUNCTION        0.13          0.680        0.000
  YS02001783           JUNCTION        0.35          0.494        1.106
  YS02001784           JUNCTION        0.33          0.365        1.125
  YS02001786           JUNCTION        0.25          0.205        1.225
  YS02001882           JUNCTION        0.31          0.830        0.000
  YS02001884           JUNCTION        0.32          0.830        0.040
  YS02001887           JUNCTION        0.34          0.788        0.162
  YS02001890           JUNCTION        0.36          0.760        0.000
  YS02001895           JUNCTION        0.30          0.652        0.098
  YS02001898           JUNCTION        0.29          0.740        0.000
  YS02001901           JUNCTION        0.33          0.813        0.057
  YS02001904           JUNCTION        0.33          0.763        0.087
  YS02001907           JUNCTION        0.50          0.950        0.000
  YS02001910           JUNCTION        0.37          0.995        0.105
  YS02001915           JUNCTION        0.31          0.944        0.056
  YS02001918           JUNCTION        0.24          0.810        0.000
  YS02001920           JUNCTION        0.25          1.140        0.000
  YS02001923           JUNCTION        0.01          0.820        0.000
  YS02001926           JUNCTION        0.02          0.900        0.000
  YS02001929           JUNCTION        0.01          0.780        0.000
  YS02006553           JUNCTION        0.51          1.039        0.151
  YS02006556           JUNCTION        0.44          1.015        0.335
  YS02006558           JUNCTION        0.43          0.962        0.438
  YS02006561           JUNCTION        0.20          0.182        0.968
  YS02163301           JUNCTION        0.57          0.931        0.099
  YS02163601           JUNCTION        0.60          1.060        0.020
  YS02164001           JUNCTION        0.50          0.997        0.103
  YSB1154              JUNCTION        0.66          1.213        0.187
  YSB1171              JUNCTION        0.66          1.100        0.000
  YSB1174              JUNCTION        0.59          1.102        0.148
  YSB6556              JUNCTION        0.54          1.059        0.041
  
  
  *********************
  Node Flooding Summary
  *********************
  
  Flooding refers to all water that overflows a node, whether it ponds or not.
  --------------------------------------------------------------------------
                                                             Total   Maximum
                                 Maximum   Time of Max       Flood    Ponded
                        Hours       Rate    Occurrence      Volume     Depth
  Node                 Flooded       LPS   days hr:min    10^6 ltr    Meters
  --------------------------------------------------------------------------
  HS02004770              0.25    818.59      0  01:50       0.388     0.000
  HS02004777              0.01     65.24      0  01:46       0.001     0.000
  HS02004785              0.01     64.95      0  01:46       0.000     0.000
  HS02004788              0.01    624.44      0  01:46       0.007     0.000
  HS02004792              0.26   1196.33      0  01:51       0.652     0.000
  HS02004799              0.07    153.71      0  01:49       0.019     0.000
  HS02004807              0.01     35.21      0  01:47       0.000     0.000
  HS02004817              0.01     23.60      0  01:47       0.000     0.000
  HS02004824              0.01     38.76      0  01:47       0.000     0.000
  HS02004830              0.01     57.82      0  01:47       0.000     0.000
  HS02004862              0.01    127.68      0  01:49       0.001     0.000
  HS02004870              0.01     99.02      0  01:49       0.001     0.000
  HS02004876              0.01     72.98      0  01:49       0.000     0.000
  HS02004881              0.01    658.28      0  01:49       0.003     0.000
  HS02004901              0.31    497.63      0  01:53       0.414     0.000
  WS02006109              0.28    244.08      0  01:50       0.151     0.000
  WS02006112              0.01     32.19      0  01:44       0.000     0.000
  WS02006228              0.01      0.46      0  01:51       0.000     0.000
  WS02006230              0.53    559.53      0  01:50       0.668     0.000
  WS02006232              0.12      1.99      0  01:44       0.000     0.000
  WS02006234              0.59    128.08      0  01:56       0.170     0.000
  WS02006235              0.01     63.49      0  01:41       0.000     0.000
  WS02006239              0.01    106.31      0  01:41       0.000     0.000
  WS02006240              0.01    184.94      0  01:41       0.000     0.000
  WS02006242              0.66    171.65      0  00:05       0.277     0.000
  WS02006243              0.01    339.15      0  01:42       0.001     0.000
  WS02006245              0.01    217.93      0  02:50       0.000     0.000
  WS02006247              0.01    196.44      0  02:55       0.000     0.000
  WS02006248              0.84    338.85      0  02:11       0.819     0.000
  WS02006249              0.90   1331.91      0  01:49       2.457     0.000
  WS02006251              0.01    464.75      0  02:40       0.002     0.000
  WS02006252              0.39   1980.51      0  02:00       1.345     0.000
  WS02006253              0.01    492.56      0  02:45       0.001     0.000
  WS02006256              0.35   1489.38      0  03:05       0.823     0.000
  YS02001580              0.01    129.88      0  01:47       0.001     0.000
  YS02001583              0.01    189.31      0  01:47       0.001     0.000
  YS02001586              0.30    188.91      0  01:53       0.122     0.000
  YS02001590              0.01    116.30      0  01:46       0.000     0.000
  YS02001600              0.01      4.99      0  01:46       0.000     0.000
  YS02001601              0.42    845.70      0  01:51       0.691     0.000
  YS02001602              0.28     62.12      0  02:01       0.058     0.000
  YS02001605              0.01      3.95      0  01:47       0.000     0.000
  YS02001610              0.25    373.04      0  01:53       0.230     0.000
  YS02001613              0.01     48.83      0  01:47       0.000     0.000
  YS02001616              0.01     47.62      0  01:47       0.000     0.000
  YS02001619              0.01     44.50      0  01:47       0.000     0.000
  YS02001622              0.01    247.49      0  01:47       0.001     0.000
  YS02001625              0.21    941.70      0  01:52       0.341     0.000
  YS02001629              0.05    244.00      0  01:47       0.014     0.000
  YS02001644              0.03    232.03      0  01:51       0.018     0.000
  YS02001779              0.02    442.29      0  01:49       0.007     0.000
  YS02001882              0.01     80.41      0  01:48       0.000     0.000
  YS02001890              0.06    121.02      0  01:48       0.011     0.000
  YS02001898              0.01    264.02      0  01:48       0.001     0.000
  YS02001907              0.19   1233.04      0  01:50       0.407     0.000
  YS02001918              0.01    289.07      0  01:48       0.003     0.000
  YS02001920              0.01     47.38      0  01:49       0.000     0.000
  YS02001923              0.01    105.37      0  01:49       0.000     0.000
  YS02001926              0.01    294.19      0  01:49       0.003     0.000
  YS02001929              0.01    967.87      0  01:49       0.005     0.000
  YSB1171                 0.16    565.78      0  01:51       0.188     0.000
  
  
  **********************
  Storage Volume Summary
  **********************
  
  --------------------------------------------------------------------------------------------------
                         Average     Avg  Evap Exfil       Maximum     Max    Time of Max    Maximum
                          Volume    Pcnt  Pcnt  Pcnt        Volume    Pcnt     Occurrence    Outflow
  Storage Unit           1000 m3    Full  Loss  Loss       1000 m3    Full    days hr:min        LPS
  --------------------------------------------------------------------------------------------------
  CC-storage               1.440      22     0     0         2.229      35       0  00:00    7830.00
  JK-storage               0.068      23     0     0         0.213      73       0  01:50   11500.00
  XR-storage               0.944      66     0     0         1.111      77       0  08:00     380.00
  
  
  ***********************
  Outfall Loading Summary
  ***********************
  
  -----------------------------------------------------------
                         Flow       Avg       Max       Total
                         Freq      Flow      Flow      Volume
  Outfall Node           Pcnt       LPS       LPS    10^6 ltr
  -----------------------------------------------------------
  CC-1                   2.44   2419.53   3415.00       1.194
  CC-2                  10.88   3191.88   3415.00       5.566
  JK-1                   2.74   2035.97   5000.00       0.936
  JK-2                   1.52   4454.55   5000.00       1.133
  WSC                   99.94    593.44   1508.20      12.305
  -----------------------------------------------------------
  System                23.50  12695.37   1508.20      21.134
  
  
  ********************
  Link Flow Summary
  ********************
  
  -----------------------------------------------------------------------------
                                 Maximum  Time of Max   Maximum    Max/    Max/
                                  |Flow|   Occurrence   |Veloc|    Full    Full
  Link                 Type          LPS  days hr:min     m/sec    Flow   Depth
  -----------------------------------------------------------------------------
  1                    CONDUIT   1508.20     0  01:56      3.70    0.53    0.51
  HS02004478WS02006287 CONDUIT   2276.57     0  01:50      2.64    0.64    1.00
  HS02004479HS02004480 CONDUIT    538.00     0  01:48      0.77    0.52    1.00
  HS02004480HS02004478 CONDUIT   2198.28     0  01:47      3.14    9.26    1.00
  HS02004770HS02004777 CONDUIT    848.52     0  01:46      1.21    1.55    1.00
  HS02004777HS02004785 CONDUIT    870.65     0  01:46      1.37    1.07    1.00
  HS02004785HS02004788 CONDUIT    804.72     0  01:46      1.35    6.07    1.00
  HS02004788HS02004792 CONDUIT    821.68     0  02:05      1.40    0.54    1.00
  HS02004792HS02004799 CONDUIT   1565.59     0  02:05      2.24    0.96    1.00
  HS02004799HS02004480 CONDUIT   1748.77     0  01:47      2.50    2.21    1.00
  HS02004802HS02004478 CONDUIT    936.21     0  01:51      1.34    0.83    1.00
  HS02004807HS02004802 CONDUIT    936.02     0  01:51      1.34    1.79    1.00
  HS02004817HS02004807 CONDUIT    616.22     0  01:52      0.88    0.36    1.00
  HS02004817HS02004824 CONDUIT    615.76     0  01:52      0.88    0.28    1.00
  HS02004824HS02004830 CONDUIT    778.94     0  01:47      1.11    1.02    1.00
  HS02004830HS02004837 CONDUIT    791.99     0  01:47      1.21    0.79    1.00
  HS02004837HS02004842 CONDUIT   1047.09     0  01:47      1.50    0.63    1.00
  HS02004842HS02004848 CONDUIT   1051.32     0  01:47      1.67    0.61    1.00
  HS02004848HS02004852 CONDUIT   1222.61     0  01:48      1.81    1.38    1.00
  HS02004852HS02004856 CONDUIT   1231.56     0  01:48      1.77    1.41    1.00
  HS02004856HS02004862 CONDUIT   1360.90     0  01:48      1.98    1.36    1.00
  HS02004862HS02004870 CONDUIT   1486.05     0  01:48      2.28    1.61    1.00
  HS02004870HS02004876 CONDUIT   1536.23     0  01:49      2.19    1.02    1.00
  HS02004876HS02004881 CONDUIT   1727.00     0  01:49      2.76   18.37    1.00
  HS02004881HS02006253 CONDUIT   1576.45     0  01:49      2.80    0.31    1.00
  HS02004901HS02004770 CONDUIT    265.62     0  02:01      0.38    1.00    1.00
  WS02001211WS02001212 CONDUIT    254.50     0  01:52      0.54    0.19    0.70
  WS02001212WS02001213 CONDUIT    254.28     0  01:52      1.04    0.39    0.58
  WS02001213WS02003059 CONDUIT    237.94     0  01:54      0.47    0.39    0.91
  WS02003059WS02003060 CONDUIT    258.06     0  01:53      0.66    0.17    0.82
  WS02003060WS02003069 CONDUIT   1516.02     0  01:54      2.10    0.59    0.61
  WS02003066WSF200     CONDUIT   1299.10     0  01:50      3.47    0.22    0.38
  WS02003067WS02003066 CONDUIT   1300.12     0  01:50      2.04    0.42    0.56
  WS02003069WS02003072 CONDUIT   1510.43     0  01:55      1.90    0.73    0.66
  WS02003072WS02003073 CONDUIT   1507.68     0  01:55      2.05    3.26    0.62
  WS02004138WS02004139 CONDUIT    190.77     0  00:29      2.15    0.04    0.42
  WS02004139WS02001211 CONDUIT    264.25     0  01:50      0.54    0.33    0.62
  WS02004401WS02004402 CONDUIT   1290.45     0  01:50      1.64    1.55    1.00
  WS02004402WS02004403 CONDUIT   1290.48     0  01:50      1.64    1.85    1.00
  WS02004403WS02004404 CONDUIT   1291.62     0  01:50      1.64    0.93    1.00
  WS02004404WS02004405 CONDUIT   1291.09     0  01:50      1.64   12.65    1.00
  WS02004405WS02004406 CONDUIT   1291.58     0  01:50      1.64    2.55    1.00
  WS02004406WS02004407 CONDUIT   1291.23     0  01:50      1.96    0.58    0.95
  WS02004407WS02004409 CONDUIT   1291.02     0  01:50      2.02    0.46    0.95
  WS02004409WS02004410 CONDUIT   1291.51     0  01:50      1.64    1.67    1.00
  WS02004410WS02004411 CONDUIT   1291.17     0  01:50      1.64    1.76    1.00
  WS02004411WS02004412 CONDUIT   1291.33     0  01:50      1.64    1.83    1.00
  WS02004412WS02004413 CONDUIT   1291.25     0  01:50      1.64    0.86    1.00
  WS02004413WS02003067 CONDUIT   1291.33     0  01:50      2.00    0.55    0.77
  WS02006109WS02006110 CONDUIT   1116.27     0  02:04      2.22    2.15    1.00
  WS02006110WS02006113 CONDUIT   1116.48     0  02:04      2.22    1.02    1.00
  WS02006111WS02006112 CONDUIT   1116.54     0  02:04      2.22    0.53    1.00
  WS02006112WS02006115 CONDUIT   1290.16     0  01:50      1.64    0.76    1.00
  WS02006113WS02006111 CONDUIT   1116.58     0  02:04      2.68    1.34    1.00
  WS02006115WS02006116 CONDUIT   1290.35     0  01:50      1.64    1.66    1.00
  WS02006116WS02004401 CONDUIT   1290.47     0  01:51      1.64    1.78    1.00
  WS02006228WS02006109 CONDUIT   1273.50     0  01:51      2.53    5.56    1.00
  WS02006229WS02006228 CONDUIT   1274.63     0  01:51      2.54    4.22    1.00
  WS02006230WS02006229 CONDUIT   1002.11     0  01:50      2.60   22.30    1.00
  WS02006231WS02006230 CONDUIT    453.35     0  01:51      1.34    6.88    1.00
  WS02006232WS02006231 CONDUIT    453.45     0  01:48      1.18    0.95    1.00
  WS02006234WS02006232 CONDUIT    453.03     0  02:00      1.41    0.92    1.00
  WS02006235WS02006234 CONDUIT    446.61     0  00:06      1.39    4.71    1.00
  WS02006238WS02006235 CONDUIT    453.68     0  00:06      1.45    1.01    1.00
  WS02006239WS02006238 CONDUIT    461.65     0  00:06      1.26    1.48    1.00
  WS02006240WS02006239 CONDUIT    488.54     0  00:06      1.35    1.54    1.00
  WS02006242WS02006240 CONDUIT    568.63     0  00:06      1.58    2.26    1.00
  WS02006243WS02006242 CONDUIT    620.39     0  00:05      1.62    1.33    1.00
  WS02006245WS02006243 CONDUIT    663.71     0  00:05      1.76    1.96    1.00
  WS02006247WS02006245 CONDUIT    668.41     0  00:05      1.74    5.30    1.00
  WS02006248WS02006247 CONDUIT    668.71     0  00:05      1.74    1.46    1.00
  WS02006249WS02006248 CONDUIT    669.97     0  00:05      1.75    3.67    1.00
  WS02006251WS02006249 CONDUIT   1342.34     0  01:49      3.49    3.87    1.00
  WS02006252WS02006251 CONDUIT   1002.76     0  02:45    >50.00    3.68    1.00
  WS02006253WS02006251 CONDUIT   1612.60     0  01:49      4.19    4.84    1.00
  WS02006256WS02006235 CONDUIT    288.93     0  00:00      4.23    3.06    1.00
  WS02006280WS02006229 CONDUIT   2277.22     0  01:50      4.57    0.49    1.00
  WS02006284WS02006280 CONDUIT   2275.79     0  01:50      3.03    0.95    1.00
  WS02006287WS02006284 CONDUIT   2275.23     0  01:50      2.90    1.05    1.00
  WSF200WS02003060     CONDUIT   1310.75     0  01:50      2.61    0.29    0.51
  YS02001580YS02001583 CONDUIT    201.97     0  01:47      0.94    0.78    1.00
  YS02001583YS02001586 CONDUIT    220.24     0  01:47      0.98    0.33    1.00
  YS02001586YS02001590 CONDUIT    318.96     0  02:01      1.30    0.56    1.00
  YS02001590YS02001593 CONDUIT    318.18     0  02:01      1.13    2.00    1.00
  YS02001593YS02001596 CONDUIT    318.03     0  02:02      1.75    0.50    1.00
  YS02001596YS02001600 CONDUIT    317.92     0  01:55      1.21    0.62    1.00
  YS02001600YS02001601 CONDUIT    318.01     0  01:56      1.12    0.55    1.00
  YS02001601YS02001602 CONDUIT    577.76     0  01:47      2.04    2.09    1.00
  YS02001602YS02001605 CONDUIT    578.00     0  01:47      2.04   12.23    1.00
  YS02001605YS02001607 CONDUIT    577.49     0  01:47      2.04    3.17    1.00
  YS02001607YS02001610 CONDUIT    539.54     0  01:47      0.72    0.51    1.00
  YS02001610YS02001613 CONDUIT    513.41     0  02:11      0.68    0.59    1.00
  YS02001613YS02001616 CONDUIT    513.46     0  02:11      0.66    0.44    1.00
  YS02001616YS02001619 CONDUIT    514.16     0  02:11      0.68    0.89    1.00
  YS02001619YS02001622 CONDUIT    937.08     0  02:05      1.29    1.38    1.00
  YS02001622YS02001625 CONDUIT    936.95     0  02:04      1.19    0.50    1.00
  YS02001625YS02001629 CONDUIT    937.07     0  02:04      1.19    0.45    1.00
  YS02001629YS02163301 CONDUIT    939.57     0  02:05      1.20    1.16    1.00
  YS02001633YS02163601 CONDUIT   1431.17     0  01:48      1.82    1.50    1.00
  YS02001641YS02001644 CONDUIT   1428.31     0  01:48      1.82    4.62    1.00
  YS02001644YS02001647 CONDUIT   1945.91     0  01:48      2.48    1.14    1.00
  YS02001647YS02001649 CONDUIT   1955.23     0  01:48      2.49    1.03    1.00
  YS02001649YS02001757 CONDUIT   2238.93     0  01:49      2.85    1.36    1.00
  YS02001652YS02001649 CONDUIT    751.88     0  01:52      0.96    0.37    1.00
  YS02001655YS02001652 CONDUIT    750.37     0  01:52      1.49    0.36    1.00
  YS02001658YS02001655 CONDUIT    748.75     0  01:52      2.07    0.32    1.00
  YS02001661YS02001658 CONDUIT    763.90     0  01:50      2.48    0.30    0.99
  YS02001664YS02001661 CONDUIT    821.78     0  01:51      2.48    0.26    0.72
  YS02001745YS02001748 CONDUIT    635.39     0  01:50      2.37    0.24    0.89
  YS02001748YS02001751 CONDUIT    496.80     0  01:51      1.91    0.25    1.00
  YS02001751YS02001754 CONDUIT    497.51     0  01:51      1.58    0.24    1.00
  YS02001754YS02001757 CONDUIT    496.81     0  01:51      0.63    0.20    1.00
  YS02001757CaochengTiaoxuchi CONDUIT   3467.36     0  01:51      5.03    1.50    0.84
  YS02001759YS02001757 CONDUIT   1378.03     0  01:50      1.75    0.98    1.00
  YS02001762YS02001759 CONDUIT    810.86     0  01:50      1.03    0.93    1.00
  YS02001765YS02001762 CONDUIT    805.67     0  01:50      1.03    0.76    1.00
  YS02001767YS02001765 CONDUIT    800.06     0  01:50      1.02    1.01    1.00
  YS02001770YS02001767 CONDUIT    794.62     0  01:50      1.01    3.15    1.00
  YS02001774YS02001770 CONDUIT    486.63     0  01:49      0.62    0.31    1.00
  YS02001779YS02001774 CONDUIT    469.94     0  01:49      0.60    0.24    1.00
  YS02001783YS02001784 CONDUIT   1154.46     0  01:49      2.30    1.59    1.00
  YS02001784YS02001785 CONDUIT   1155.71     0  01:49      2.30    2.69    1.00
  YS02001786YS02001788 CONDUIT   1157.35     0  01:49      2.47    2.23    0.89
  YS02001788YS02001790 CONDUIT   1163.37     0  01:53      2.70    0.86    0.84
  YS02001790YS02001791 CONDUIT   1287.64     0  01:50      3.42    1.40    0.70
  YS02001791YS02001793 CONDUIT   1245.88     0  01:53      6.75    0.53    0.45
  YS02001793JiankangQianchi CONDUIT   1353.66     0  01:50      2.95    0.11    0.65
  YS02001882YS02001884 CONDUIT     88.32     0  01:48      0.12    0.10    1.00
  YS02001884YS02001887 CONDUIT    159.75     0  01:47      0.20    0.21    1.00
  YS02001887YS02001890 CONDUIT    615.32     0  01:50      0.78    1.05    1.00
  YS02001890YS02001895 CONDUIT    602.05     0  01:48      0.77    0.28    1.00
  YS02001895YS02001898 CONDUIT    603.46     0  01:48      0.77    1.05    1.00
  YS02001898YS02001901 CONDUIT    605.31     0  01:48      0.77    0.39    1.00
  YS02001901YS02001904 CONDUIT    603.29     0  01:48      0.77    0.94    1.00
  YS02001904YS02001907 CONDUIT    599.06     0  01:48      0.76    0.21    1.00
  YS02001907YS02006553 CONDUIT    805.48     0  02:01      0.89    0.95    1.00
  YS02001910YS02001907 CONDUIT   1089.57     0  01:50      1.39    0.61    1.00
  YS02001915YS02001910 CONDUIT   1088.74     0  01:50      1.39    0.54    1.00
  YS02001918YS02001915 CONDUIT    738.94     0  01:48      0.96    0.41    1.00
  YS02001920YS02001918 CONDUIT    676.41     0  01:49      0.86    0.65    1.00
  YS02001923YS02001920 CONDUIT    693.46     0  01:49      0.93    0.31    1.00
  YS02001926YS02001923 CONDUIT    968.01     0  01:49      1.40    1.38    1.00
  YS02001929YS02001926 CONDUIT    814.70     0  01:49      1.25    0.39    1.00
  YS02006553YS02006556 CONDUIT    805.18     0  02:01      1.03    0.69    1.00
  YS02006556YS02006558 CONDUIT    803.05     0  02:01      1.02    0.63    1.00
  YS02006558YS02006561 CONDUIT   1193.38     0  01:48      4.22    2.64    1.00
  YS02006561YS02001783 CONDUIT   1154.05     0  01:49      2.30    0.60    1.00
  YS02163301YS02001633 CONDUIT    940.51     0  02:05      1.20    0.88    1.00
  YS02163601YS02164001 CONDUIT   1430.04     0  01:48      1.82    1.27    1.00
  YS02164001YS02001641 CONDUIT   1430.10     0  01:48      1.82    1.95    1.00
  YSB1154YSB6556       CONDUIT    330.01     0  01:51      0.86    0.59    1.00
  YSB1171HS02004479    CONDUIT    539.46     0  01:48      1.07    0.36    1.00
  YSB1174YSB1171       CONDUIT    289.99     0  01:50      0.75    0.44    1.00
  YSB6556YSB1171       CONDUIT    330.01     0  01:50      0.86    0.34    1.00
  CC-R1                PUMP      3415.00     0  00:05              5.00
  CC-R2                PUMP      3415.00     0  00:05              5.00
  CC-S1                PUMP      1000.00     0  01:30              5.00
  CC-S2                PUMP      1000.00     0  00:05              5.00
  JK-R1                PUMP      5000.00     0  01:40              5.00
  JK-R2                PUMP      5000.00     0  01:40              5.00
  JK-S                 PUMP      1500.00     0  00:20              5.00
  XR-1                 PUMP        95.00     0  00:00              1.00
  XR-2                 PUMP        95.00     0  00:00              1.00
  XR-3                 PUMP        95.00     0  00:00              1.00
  XR-4                 PUMP        95.00     0  00:00              1.00
  
  
  ***************************
  Flow Classification Summary
  ***************************
  
  -------------------------------------------------------------------------------------
                      Adjusted    ---------- Fraction of Time in Flow Class ---------- 
                       /Actual         Up    Down  Sub   Sup   Up    Down  Norm  Inlet 
  Conduit               Length    Dry  Dry   Dry   Crit  Crit  Crit  Crit  Ltd   Ctrl  
  -------------------------------------------------------------------------------------
  1                       1.00   0.00  0.00  0.00  0.00  1.00  0.00  0.00  0.35  0.00
  HS02004478WS02006287    1.00   0.11  0.00  0.00  0.58  0.31  0.00  0.00  0.62  0.00
  HS02004479HS02004480    1.00   0.04  0.00  0.00  0.96  0.00  0.00  0.00  0.12  0.00
  HS02004480HS02004478    1.00   0.09  0.00  0.00  0.51  0.00  0.00  0.40  0.00  0.00
  HS02004770HS02004777    1.00   0.00  0.09  0.00  0.91  0.00  0.00  0.00  0.03  0.00
  HS02004777HS02004785    1.00   0.00  0.00  0.00  1.00  0.00  0.00  0.00  0.13  0.00
  HS02004785HS02004788    1.00   0.00  0.00  0.00  1.00  0.00  0.00  0.00  0.00  0.00
  HS02004788HS02004792    1.00   0.00  0.00  0.00  0.99  0.01  0.00  0.00  0.92  0.00
  HS02004792HS02004799    1.00   0.00  0.00  0.00  0.99  0.01  0.00  0.00  0.89  0.00
  HS02004799HS02004480    1.00   0.00  0.04  0.00  0.89  0.00  0.07  0.00  0.00  0.00
  HS02004802HS02004478    1.00   0.09  0.00  0.00  0.90  0.00  0.00  0.00  0.03  0.00
  HS02004807HS02004802    1.00   0.09  0.00  0.00  0.90  0.00  0.00  0.01  0.00  0.00
  HS02004817HS02004807    1.00   0.00  0.09  0.00  0.91  0.00  0.00  0.00  0.01  0.00
  HS02004817HS02004824    1.00   0.00  0.00  0.00  1.00  0.00  0.00  0.00  0.85  0.00
  HS02004824HS02004830    1.00   0.00  0.00  0.00  1.00  0.00  0.00  0.00  0.01  0.00
  HS02004830HS02004837    1.00   0.00  0.00  0.00  1.00  0.00  0.00  0.00  0.91  0.00
  HS02004837HS02004842    1.00   0.00  0.00  0.00  0.99  0.01  0.00  0.00  0.11  0.00
  HS02004842HS02004848    1.00   0.00  0.09  0.00  0.91  0.00  0.00  0.00  0.60  0.00
  HS02004848HS02004852    1.00   0.09  0.00  0.00  0.91  0.00  0.00  0.00  0.71  0.00
  HS02004852HS02004856    1.00   0.09  0.01  0.00  0.90  0.00  0.00  0.00  0.71  0.00
  HS02004856HS02004862    1.00   0.00  0.11  0.00  0.89  0.00  0.00  0.00  0.75  0.00
  HS02004862HS02004870    1.00   0.00  0.00  0.00  1.00  0.00  0.00  0.00  0.04  0.00
  HS02004870HS02004876    1.00   0.01  0.00  0.00  0.99  0.00  0.00  0.00  0.92  0.00
  HS02004876HS02004881    1.00   0.01  0.00  0.00  0.76  0.23  0.00  0.00  0.00  0.00
  HS02004881HS02006253    1.00   0.00  0.01  0.00  0.32  0.05  0.00  0.62  0.12  0.00
  HS02004901HS02004770    1.00   0.09  0.00  0.00  0.91  0.00  0.00  0.00  0.00  0.00
  WS02001211WS02001212    1.00   0.00  0.03  0.00  0.97  0.00  0.00  0.00  0.00  0.00
  WS02001212WS02001213    1.00   0.03  0.00  0.00  0.42  0.00  0.55  0.00  0.00  0.00
  WS02001213WS02003059    1.00   0.00  0.00  0.00  0.99  0.00  0.00  0.00  0.00  0.00
  WS02003059WS02003060    1.00   0.00  0.00  0.00  1.00  0.00  0.00  0.00  0.03  0.00
  WS02003060WS02003069    1.00   0.00  0.00  0.00  0.99  0.01  0.00  0.00  0.59  0.00
  WS02003066WSF200        1.00   0.06  0.00  0.00  0.00  0.94  0.00  0.00  0.72  0.00
  WS02003067WS02003066    1.00   0.06  0.00  0.00  0.94  0.00  0.00  0.00  0.00  0.00
  WS02003069WS02003072    1.00   0.00  0.00  0.00  1.00  0.00  0.00  0.00  0.73  0.00
  WS02003072WS02003073    1.00   0.00  0.00  0.00  0.00  0.00  0.00  1.00  0.00  0.00
  WS02004138WS02004139    1.00   0.00  0.01  0.00  0.97  0.01  0.00  0.02  0.98  0.00
  WS02004139WS02001211    1.00   0.00  0.00  0.00  0.99  0.00  0.00  0.00  0.00  0.00
  WS02004401WS02004402    1.00   0.03  0.00  0.00  0.97  0.00  0.00  0.00  0.00  0.00
  WS02004402WS02004403    1.00   0.03  0.00  0.00  0.97  0.00  0.00  0.00  0.00  0.00
  WS02004403WS02004404    1.00   0.00  0.03  0.00  0.97  0.00  0.00  0.00  0.00  0.00
  WS02004404WS02004405    1.00   0.00  0.00  0.00  1.00  0.00  0.00  0.00  0.00  0.00
  WS02004405WS02004406    1.00   0.00  0.00  0.00  1.00  0.00  0.00  0.00  0.00  0.00
  WS02004406WS02004407    1.00   0.00  0.04  0.00  0.96  0.00  0.00  0.00  0.00  0.00
  WS02004407WS02004409    1.00   0.04  0.00  0.00  0.95  0.00  0.00  0.00  0.86  0.00
  WS02004409WS02004410    1.00   0.04  0.00  0.00  0.96  0.00  0.00  0.00  0.00  0.00
  WS02004410WS02004411    1.00   0.05  0.00  0.00  0.95  0.00  0.00  0.00  0.00  0.00
  WS02004411WS02004412    1.00   0.05  0.00  0.00  0.95  0.00  0.00  0.00  0.00  0.00
  WS02004412WS02004413    1.00   0.05  0.00  0.00  0.95  0.00  0.00  0.00  0.00  0.00
  WS02004413WS02003067    1.00   0.05  0.01  0.00  0.00  0.00  0.94  0.00  0.00  0.00
  WS02006109WS02006110    1.00   0.00  0.01  0.00  0.98  0.00  0.01  0.00  0.00  0.00
  WS02006110WS02006113    1.00   0.01  0.01  0.00  0.98  0.00  0.00  0.00  0.00  0.00
  WS02006111WS02006112    1.00   0.02  0.00  0.00  0.97  0.00  0.00  0.00  0.81  0.00
  WS02006112WS02006115    1.00   0.02  0.00  0.00  0.97  0.00  0.00  0.00  0.00  0.00
  WS02006113WS02006111    1.00   0.02  0.00  0.00  0.26  0.72  0.00  0.00  0.07  0.00
  WS02006115WS02006116    1.00   0.03  0.00  0.00  0.96  0.00  0.00  0.01  0.00  0.00
  WS02006116WS02004401    1.00   0.03  0.00  0.00  0.97  0.00  0.00  0.00  0.00  0.00
  WS02006228WS02006109    1.00   0.00  0.00  0.00  1.00  0.00  0.00  0.00  0.00  0.00
  WS02006229WS02006228    1.00   0.00  0.00  0.00  0.99  0.00  0.00  0.01  0.00  0.00
[...]
  WS02006284WS02006280    1.00   0.10  0.00  0.00  0.14  0.01  0.00  0.75  0.00  0.00
  WS02006287WS02006284    1.00   0.08  0.03  0.00  0.48  0.41  0.00  0.00  0.66  0.00
  WSF200WS02003060        1.00   0.00  0.06  0.00  0.55  0.39  0.00  0.00  0.70  0.00
  YS02001580YS02001583    1.00   0.19  0.50  0.00  0.31  0.00  0.00  0.00  0.71  0.00
  YS02001583YS02001586    1.00   0.34  0.26  0.00  0.40  0.00  0.00  0.00  0.71  0.00
  YS02001586YS02001590    1.00   0.09  0.00  0.00  0.57  0.03  0.00  0.31  0.33  0.00
  YS02001590YS02001593    1.00   0.09  0.00  0.00  0.14  0.00  0.76  0.00  0.00  0.00
  YS02001593YS02001596    1.00   0.10  0.00  0.00  0.17  0.01  0.00  0.72  0.01  0.00
  YS02001596YS02001600    1.00   0.10  0.00  0.00  0.29  0.04  0.00  0.57  0.05  0.00
  YS02001600YS02001601    1.00   0.09  0.00  0.00  0.90  0.00  0.00  0.00  0.64  0.00
  YS02001601YS02001602    1.00   0.09  0.01  0.00  0.90  0.00  0.00  0.00  0.00  0.00
  YS02001602YS02001605    1.00   0.10  0.00  0.00  0.90  0.00  0.00  0.00  0.00  0.00
  YS02001605YS02001607    1.00   0.10  0.00  0.00  0.90  0.00  0.00  0.00  0.00  0.00
  YS02001607YS02001610    1.00   0.09  0.00  0.00  0.90  0.00  0.00  0.00  0.02  0.00
  YS02001610YS02001613    1.00   0.09  0.00  0.00  0.91  0.00  0.00  0.00  0.01  0.00
  YS02001613YS02001616    1.00   0.09  0.00  0.00  0.91  0.00  0.00  0.00  0.01  0.00
  YS02001616YS02001619    1.00   0.09  0.00  0.00  0.91  0.00  0.00  0.00  0.00  0.00
  YS02001619YS02001622    1.00   0.09  0.00  0.00  0.91  0.00  0.00  0.00  0.36  0.00
  YS02001622YS02001625    1.00   0.09  0.00  0.00  0.91  0.00  0.00  0.00  0.05  0.00
  YS02001625YS02001629    1.00   0.09  0.03  0.00  0.20  0.00  0.67  0.00  0.00  0.00
  YS02001629YS02163301    1.00   0.11  0.00  0.00  0.89  0.00  0.00  0.00  0.00  0.00
  YS02001633YS02163601    1.00   0.00  0.01  0.00  0.99  0.00  0.00  0.00  0.15  0.00
  YS02001641YS02001644    1.00   0.00  0.01  0.00  0.99  0.00  0.00  0.00  0.00  0.00
  YS02001644YS02001647    1.00   0.00  0.12  0.00  0.88  0.00  0.00  0.00  0.00  0.00
  YS02001647YS02001649    1.00   0.00  0.12  0.00  0.47  0.41  0.00  0.00  0.60  0.00
  YS02001649YS02001757    1.00   0.00  0.00  0.00  0.53  0.47  0.00  0.00  0.64  0.00
  YS02001652YS02001649    1.00   0.00  0.00  0.00  0.97  0.03  0.00  0.00  0.78  0.00
  YS02001655YS02001652    1.00   0.00  0.00  0.00  0.23  0.04  0.00  0.73  0.08  0.00
  YS02001658YS02001655    1.00   0.00  0.10  0.00  0.48  0.42  0.00  0.00  0.75  0.00
  YS02001661YS02001658    1.00   0.10  0.00  0.00  0.35  0.56  0.00  0.00  0.76  0.00
  YS02001664YS02001661    1.00   0.09  0.00  0.00  0.71  0.20  0.00  0.00  0.86  0.00
  YS02001745YS02001748    1.00   0.00  0.00  0.00  0.03  0.01  0.00  0.96  0.02  0.00
  YS02001748YS02001751    1.00   0.00  0.00  0.00  0.60  0.40  0.00  0.00  0.84  0.00
  YS02001751YS02001754    1.00   0.00  0.00  0.00  0.14  0.02  0.00  0.84  0.04  0.00
  YS02001754YS02001757    1.00   0.00  0.00  0.00  1.00  0.00  0.00  0.00  0.90  0.00
  YS02001757CaochengTiaoxuchi    1.00   0.00  0.00  0.00  0.75  0.25  0.00  0.00  0.94  0.00
  YS02001759YS02001757    1.00   0.00  0.00  0.00  1.00  0.00  0.00  0.00  0.64  0.00
  YS02001762YS02001759    1.00   0.00  0.00  0.00  1.00  0.00  0.00  0.00  0.04  0.00
  YS02001765YS02001762    1.00   0.00  0.00  0.00  1.00  0.00  0.00  0.00  0.77  0.00
  YS02001767YS02001765    1.00   0.00  0.00  0.00  1.00  0.00  0.00  0.00  0.00  0.00
  YS02001770YS02001767    1.00   0.00  0.00  0.00  1.00  0.00  0.00  0.00  0.00  0.00
  YS02001774YS02001770    1.00   0.00  0.09  0.00  0.73  0.00  0.18  0.00  0.04  0.00
  YS02001779YS02001774    1.00   0.00  0.00  0.00  1.00  0.00  0.00  0.00  0.83  0.00
  YS02001783YS02001784    1.00   0.00  0.13  0.00  0.87  0.00  0.00  0.00  0.58  0.00
  YS02001784YS02001785    1.00   0.00  0.00  0.00  1.00  0.00  0.00  0.00  0.18  0.00
  YS02001786YS02001788    1.00   0.00  0.00  0.00  0.63  0.37  0.00  0.00  0.00  0.00
  YS02001788YS02001790    1.00   0.00  0.00  0.00  0.16  0.84  0.00  0.00  0.86  0.00
  YS02001790YS02001791    1.00   0.00  0.00  0.00  0.02  0.98  0.00  0.00  0.15  0.00
  YS02001791YS02001793    1.00   0.00  0.00  0.00  0.00  1.00  0.00  0.00  0.01  0.00
  YS02001793JiankangQianchi    1.00   0.00  0.00  0.00  0.97  0.03  0.00  0.00  0.98  0.00
  YS02001882YS02001884    1.00   0.10  0.01  0.00  0.89  0.00  0.00  0.00  0.00  0.00
  YS02001884YS02001887    1.00   0.06  0.03  0.00  0.92  0.00  0.00  0.00  0.00  0.00
  YS02001887YS02001890    1.00   0.00  0.00  0.00  0.96  0.00  0.03  0.00  0.00  0.00
  YS02001890YS02001895    1.00   0.00  0.11  0.00  0.89  0.00  0.00  0.00  0.00  0.00
  YS02001895YS02001898    1.00   0.11  0.00  0.00  0.87  0.00  0.02  0.00  0.00  0.00
  YS02001898YS02001901    1.00   0.11  0.00  0.00  0.89  0.00  0.00  0.00  0.01  0.00
  YS02001901YS02001904    1.00   0.11  0.00  0.00  0.89  0.00  0.00  0.00  0.00  0.00
  YS02001904YS02001907    1.00   0.00  0.11  0.00  0.89  0.00  0.00  0.00  0.00  0.00
  YS02001907YS02006553    1.00   0.00  0.03  0.00  0.97  0.00  0.00  0.00  0.00  0.00
  YS02001910YS02001907    1.00   0.00  0.00  0.00  0.96  0.00  0.00  0.03  0.12  0.00
  YS02001915YS02001910    1.00   0.00  0.00  0.00  0.97  0.03  0.00  0.00  0.17  0.00
  YS02001918YS02001915    1.00   0.00  0.00  0.00  0.97  0.02  0.00  0.00  0.79  0.00
  YS02001920YS02001918    1.00   0.00  0.01  0.00  0.99  0.00  0.00  0.00  0.00  0.00
  YS02001923YS02001920    1.00   0.00  0.00  0.00  1.00  0.00  0.00  0.00  0.95  0.00
  YS02001926YS02001923    1.00   0.00  0.06  0.00  0.06  0.00  0.87  0.00  0.00  0.00
  YS02001929YS02001926    1.00   0.00  0.09  0.00  0.91  0.00  0.00  0.00  0.84  0.00
  YS02006553YS02006556    1.00   0.01  0.00  0.00  0.99  0.00  0.00  0.00  0.03  0.00
  YS02006556YS02006558    1.00   0.00  0.00  0.00  1.00  0.00  0.00  0.00  0.00  0.00
  YS02006558YS02006561    1.00   0.13  0.00  0.00  0.06  0.82  0.00  0.00  0.18  0.00
  YS02006561YS02001783    1.00   0.13  0.00  0.00  0.10  0.77  0.00  0.00  0.72  0.00
  YS02163301YS02001633    1.00   0.00  0.11  0.00  0.89  0.00  0.00  0.00  0.00  0.00
  YS02163601YS02164001    1.00   0.00  0.07  0.00  0.93  0.00  0.00  0.00  0.00  0.00
  YS02164001YS02001641    1.00   0.01  0.06  0.00  0.93  0.00  0.00  0.00  0.06  0.00
  YSB1154YSB6556          1.00   0.09  0.00  0.00  0.91  0.00  0.00  0.00  0.02  0.00
  YSB1171HS02004479       1.00   0.04  0.00  0.00  0.95  0.00  0.00  0.01  0.10  0.00
  YSB1174YSB1171          1.00   0.05  0.02  0.00  0.93  0.00  0.00  0.00  0.00  0.00
  YSB6556YSB1171          1.00   0.05  0.04  0.00  0.91  0.00  0.00  0.00  0.00  0.00
  
  
  *************************
  Conduit Surcharge Summary
  *************************
  
  ----------------------------------------------------------------------------
                                                           Hours        Hours 
                         --------- Hours Full --------   Above Full   Capacity
  Conduit                Both Ends  Upstream  Dnstream   Normal Flow   Limited
  ----------------------------------------------------------------------------
  HS02004478WS02006287        0.35      0.35      0.49      0.01         0.01
  HS02004479HS02004480        0.50      0.50      0.52      0.01         0.01
  HS02004480HS02004478        0.44      0.50      0.44      1.49         0.44
  HS02004770HS02004777        0.43      0.43      0.43      0.09         0.07
  HS02004777HS02004785        0.39      0.39      0.43      0.01         0.01
  HS02004785HS02004788        0.37      0.39      0.37      1.13         0.34
  HS02004788HS02004792        0.37      0.37      0.47      0.01         0.01
  HS02004792HS02004799        0.47      0.47      0.56      0.01         0.01
  HS02004799HS02004480        0.50      0.50      0.56      0.65         0.01
  HS02004802HS02004478        0.44      0.44      0.51      0.01         0.01
  HS02004807HS02004802        0.48      0.48      0.50      0.13         0.14
  HS02004817HS02004807        0.48      0.48      0.94      0.01         0.01
  HS02004817HS02004824        0.37      0.37      0.94      0.01         0.01
  HS02004824HS02004830        0.35      0.35      0.37      0.01         0.01
  HS02004830HS02004837        0.28      0.28      0.35      0.01         0.01
  HS02004837HS02004842        0.28      0.28      0.42      0.01         0.01
  HS02004842HS02004848        0.26      0.26      0.42      0.01         0.01
  HS02004848HS02004852        0.25      0.25      0.30      0.02         0.01
  HS02004852HS02004856        0.29      0.30      0.31      0.02         0.01
  HS02004856HS02004862        0.25      0.25      0.31      0.02         0.01
  HS02004862HS02004870        0.30      0.31      0.30      0.05         0.06
  HS02004870HS02004876        0.30      0.30      0.37      0.01         0.01
  HS02004876HS02004881        0.32      0.37      0.32      1.13         0.32
  HS02004881HS02006253        0.32      0.32      0.81      0.01         0.01
  HS02004901HS02004770        0.43      0.43      0.43      0.01         0.01
  WS02003072WS02003073        0.01      0.01      0.01      1.84         0.01
  WS02004401WS02004402        1.20      1.20      1.23      1.01         0.97
  WS02004402WS02004403        1.23      1.23      1.24      1.20         1.19
  WS02004403WS02004404        1.24      1.24      1.38      0.01         0.02
  WS02004404WS02004405        1.35      1.38      1.35      2.42         1.35
  WS02004405WS02004406        1.32      1.35      1.32      1.49         1.31
  WS02004406WS02004407        0.01      0.01      1.32      0.01         0.01
  WS02004407WS02004409        0.01      0.01      0.69      0.01         0.01
  WS02004409WS02004410        0.67      0.69      0.67      1.09         0.67
  WS02004410WS02004411        0.63      0.67      0.63      1.14         0.63
  WS02004411WS02004412        0.57      0.63      0.57      1.20         0.57
  WS02004412WS02004413        0.57      0.57      0.93      0.01         0.01
  WS02004413WS02003067        0.01      0.01      0.93      0.01         0.01
  WS02006109WS02006110        1.44      1.44      1.64      1.44         0.01
  WS02006110WS02006113        0.89      0.89      1.63      0.19         0.01
  WS02006111WS02006112        0.88      0.88      1.76      0.01         0.01
  WS02006112WS02006115        1.09      1.09      1.50      0.01         0.01
  WS02006113WS02006111        0.89      0.89      0.89      1.00         0.89
  WS02006115WS02006116        1.10      1.10      1.10      1.09         1.06
  WS02006116WS02004401        1.20      1.20      1.20      1.16         1.13
  WS02006228WS02006109        1.60      1.64      1.60      1.89         1.59
  WS02006229WS02006228        1.58      1.61      1.58      1.74         1.58
  WS02006230WS02006229        1.66      1.66      1.66      2.56         0.79
  WS02006231WS02006230        1.32      1.33      1.35      2.09         0.79
  WS02006232WS02006231        1.34      1.34      1.44      0.01         0.12
  WS02006234WS02006232        1.34      1.34      1.44      0.01         0.01
  WS02006235WS02006234        1.31      1.31      1.33      1.73         0.75
  WS02006238WS02006235        1.34      1.34      1.37      0.01         0.22
  WS02006239WS02006238        1.33      1.34      1.34      0.64         0.04
  WS02006240WS02006239        1.24      1.25      1.28      0.63         0.04
  WS02006242WS02006240        1.24      1.24      1.33      0.76         0.66
  WS02006243WS02006242        1.17      1.17      1.27      0.01         0.01
  WS02006245WS02006243        1.12      1.13      1.15      0.08         0.03
  WS02006247WS02006245        1.11      1.13      1.11      1.42         0.25
  WS02006248WS02006247        1.06      1.07      1.11      0.01         0.02
  WS02006249WS02006248        1.04      1.05      1.06      0.33         0.03
  WS02006251WS02006249        1.04      1.09      1.06      0.83         0.66
  WS02006252WS02006251        0.90      1.65      1.02      0.38         0.01
  WS02006253WS02006251        1.04      1.08      1.09      0.66         0.10
  WS02006256WS02006235        1.96      2.00      5.30      0.06         0.01
  WS02006280WS02006229        0.59      0.59      0.66      0.01         0.01
  WS02006284WS02006280        0.52      0.52      0.58      0.01         0.01
  WS02006287WS02006284        0.43      0.43      0.52      0.16         0.16
  YS02001580YS02001583        0.39      0.39      0.41      0.01         0.01
  YS02001583YS02001586        0.39      0.39      0.48      0.01         0.01
  YS02001586YS02001590        0.49      0.49      0.55      0.01         0.01
  YS02001590YS02001593        0.54      0.54      0.56      0.60         0.01
  YS02001593YS02001596        0.55      0.55      0.63      0.01         0.01
  YS02001596YS02001600        0.66      0.66      0.74      0.01         0.01
  YS02001600YS02001601        0.79      0.79      1.07      0.01         0.01
  YS02001601YS02001602        0.95      0.95      1.12      0.76         0.01
  YS02001602YS02001605        0.90      0.90      0.95      1.88         0.01
  YS02001605YS02001607        0.86      0.90      0.86      1.02         0.86
  YS02001607YS02001610        0.47      0.47      0.50      0.01         0.01
  YS02001610YS02001613        0.47      0.47      0.50      0.01         0.01
  YS02001613YS02001616        0.43      0.43      0.47      0.01         0.01
  YS02001616YS02001619        0.42      0.42      0.43      0.01         0.01
  YS02001619YS02001622        0.41      0.42      0.41      0.58         0.40
  YS02001622YS02001625        0.41      0.41      0.58      0.01         0.01
  YS02001625YS02001629        0.32      0.32      0.58      0.01         0.01
  YS02001629YS02163301        0.56      0.56      0.57      0.27         0.27
  YS02001633YS02163601        0.58      0.58      0.60      0.39         0.40
  YS02001641YS02001644        0.43      0.48      0.43      1.17         0.43
  YS02001644YS02001647        0.24      0.24      0.43      0.04         0.01
  YS02001647YS02001649        0.24      0.24      0.27      0.01         0.01
  YS02001649YS02001757        0.25      0.27      0.25      0.33         0.24
  YS02001652YS02001649        0.20      0.20      0.27      0.01         0.01
  YS02001655YS02001652        0.12      0.12      0.19      0.01         0.01
  YS02001658YS02001655        0.04      0.04      0.12      0.01         0.01
  YS02001661YS02001658        0.01      0.01      0.04      0.01         0.01
  YS02001664YS02001661        0.01      0.01      0.01      0.01         0.01
  YS02001745YS02001748        0.01      0.01      0.01      0.01         0.01
  YS02001748YS02001751        0.02      0.02      0.06      0.01         0.01
  YS02001751YS02001754        0.06      0.06      0.12      0.01         0.01
  YS02001754YS02001757        0.13      0.13      0.25      0.01         0.01
  YS02001757CaochengTiaoxuchi        0.01      0.25      0.01      0.34         0.01
  YS02001759YS02001757        0.22      0.22      0.25      0.01         0.02
  YS02001762YS02001759        0.21      0.21      0.22      0.01         0.02
  YS02001765YS02001762        0.19      0.19      0.21      0.01         0.01
  YS02001767YS02001765        0.18      0.18      0.19      0.01         0.02
  YS02001770YS02001767        0.18      0.19      0.18      0.39         0.18
  YS02001774YS02001770        0.17      0.17      0.21      0.01         0.01
  YS02001779YS02001774        0.13      0.13      0.21      0.01         0.01
  YS02001783YS02001784        0.33      0.35      0.33      0.46         0.33
  YS02001784YS02001785        0.25      0.33      0.25      0.61         0.25
  YS02001786YS02001788        0.01      0.25      0.01      0.52         0.01
  YS02001790YS02001791        0.01      0.01      0.01      0.32         0.01
  YS02001793JiankangQianchi        0.01      0.01      4.38      0.01         0.01
  YS02001882YS02001884        0.31      0.31      0.32      0.01         0.01
  YS02001884YS02001887        0.34      0.34      0.34      0.01         0.01
  YS02001887YS02001890        0.36      0.36      0.36      0.04         0.01
  YS02001890YS02001895        0.30      0.30      0.38      0.01         0.01
  YS02001895YS02001898        0.29      0.29      0.30      0.01         0.01
  YS02001898YS02001901        0.30      0.30      0.33      0.01         0.01
  YS02001901YS02001904        0.33      0.33      0.33      0.01         0.01
  YS02001904YS02001907        0.33      0.33      0.51      0.01         0.01
  YS02001907YS02006553        0.62      0.62      0.67      0.01         0.01
  YS02001910YS02001907        0.37      0.37      0.50      0.01         0.01
  YS02001915YS02001910        0.31      0.31      0.37      0.01         0.01
  YS02001918YS02001915        0.24      0.24      0.31      0.01         0.01
  YS02001920YS02001918        0.24      0.24      0.25      0.01         0.01
  YS02001923YS02001920        0.20      0.20      0.25      0.01         0.01
  YS02001926YS02001923        0.01      0.01      0.02      0.01         0.01
  YS02001929YS02001926        0.01      0.01      0.01      0.01         0.01
  YS02006553YS02006556        0.44      0.44      0.51      0.01         0.01
  YS02006556YS02006558        0.47      0.47      0.52      0.01         0.01
  YS02006558YS02006561        0.27      0.43      0.27      0.58         0.27
  YS02006561YS02001783        0.20      0.20      0.35      0.01         0.01
  YS02163301YS02001633        0.57      0.57      0.60      0.01         0.01
  YS02163601YS02164001        0.50      0.50      0.60      0.23         0.01
  YS02164001YS02001641        0.48      0.50      0.48      0.61         0.44
  YSB1154YSB6556              0.54      0.54      0.66      0.01         0.01
  YSB1171HS02004479           0.46      0.46      0.66      0.01         0.01
  YSB1174YSB1171              0.59      0.59      0.87      0.01         0.01
  YSB6556YSB1171              0.54      0.54      1.02      0.01         0.01
  
  
  ***************
  Pumping Summary
  ***************
  
  ---------------------------------------------------------------------------------------------------------
                                                  Min       Avg       Max     Total     Power    % Time Off
                        Percent   Number of      Flow      Flow      Flow    Volume     Usage    Pump Curve
  Pump                 Utilized   Start-Ups       LPS       LPS       LPS  10^6 ltr     Kw-hr    Low   High
  ---------------------------------------------------------------------------------------------------------
  CC-R1                    2.05           7      0.00   2419.53   3415.00     1.193     19.75    0.0  100.0
  CC-R2                    6.50          38      0.00   3191.88   3415.00     5.569     91.96    0.0  100.0
  CC-S1                    5.01          32      0.00    917.53   1000.00     1.203     11.75    0.0    0.0
  CC-S2                    4.30          20      0.00    897.14   1000.00     0.998      9.82    0.0    0.0
  JK-R1                    1.62          20      0.00   2035.97   5000.00     0.937      8.49    0.0    0.0
  JK-R2                    0.92          21      0.00   4454.55   5000.00     1.137      8.86    0.0    0.0
  JK-S                     4.37          28      0.00    734.21   1500.00     0.975     15.72    0.0    0.0
  XR-1                    97.91           2      0.00     95.00     95.00     2.679      9.61    0.0    0.0
  XR-2                    93.94           2      0.00     95.00     95.00     2.570      8.77    0.0    0.0
  XR-3                     0.00           1      0.00     95.00     95.00     0.000      0.00    0.0    0.0
  XR-4                     0.00           1      0.00     95.00     95.00     0.000      0.00    0.0    0.0
  

  Analysis begun on:  Wed Jul 12 21:33:53 2023
  Analysis ended on:  Wed Jul 12 21:34:13 2023
  Total elapsed time: 00:00:20