
  OWA STORM WATER MANAGEMENT MODEL - VERSION v5.1.14 (OWA 2022-07-31)
  --------------------------------------------------------------

  WARNING 04: minimum elevation drop used for Conduit WS02004404WS02004405
  WARNING 03: negative offset ignored for Link YS02001904YS02001907
  
  *********************************************************
  NOTE: The summary statistics displayed in this report are
  based on results found at every computational time step,  
  not just on results from each reporting time step.
  *********************************************************
  
  ****************
  Analysis Options
  ****************
  Flow Units ............... LPS
  Process Models:
    Rainfall/Runoff ........ YES
    RDII ................... NO
    Snowmelt ............... NO
    Groundwater ............ NO
    Flow Routing ........... YES
    Ponding Allowed ........ NO
    Water Quality .......... NO
  Infiltration Method ...... HORTON
  Flow Routing Method ...... DYNWAVE
  Surcharge Method ......... EXTRAN
  Starting Date ............ 08/28/2015 08:00:00
  Ending Date .............. 08/28/2015 16:00:00
  Antecedent Dry Days ...... 8.0
  Report Time Step ......... 00:01:00
  Wet Time Step ............ 00:01:00
  Dry Time Step ............ 00:01:00
  Routing Time Step ........ 30.00 sec
  Variable Time Step ....... YES
  Maximum Trials ........... 8
  Number of Threads ........ 1
  Head Tolerance ........... 0.001500 m
  
  
  **************************        Volume         Depth
  Runoff Quantity Continuity     hectare-m            mm
  **************************     ---------       -------
  Initial LID Storage ......         0.072         1.184
  Total Precipitation ......         2.553        42.149
  Evaporation Loss .........         0.000         0.000
  Infiltration Loss ........         0.192         3.163
  Surface Runoff ...........         1.884        31.098
  Final Storage ............         0.551         9.090
  Continuity Error (%) .....        -0.041
  
  
  **************************        Volume        Volume
  Flow Routing Continuity        hectare-m      10^6 ltr
  **************************     ---------     ---------
  Dry Weather Inflow .......         0.630         6.296
  Wet Weather Inflow .......         1.884        18.840
  Groundwater Inflow .......         0.000         0.000
  RDII Inflow ..............         0.000         0.000
  External Inflow ..........         0.105         1.045
  External Outflow .........         2.030        20.303
  Flooding Loss ............         0.498         4.976
  Evaporation Loss .........         0.000         0.000
  Exfiltration Loss ........         0.000         0.000
  Initial Stored Volume ....         0.303         3.031
  Final Stored Volume ......         0.403         4.032
  Continuity Error (%) .....        -0.338
  
  
  *************************
  Highest Continuity Errors
  *************************
  Node YS02001583 (-12.94%)
  Node YS02001884 (4.85%)
  Node HS02004842 (1.81%)
  Node HS02004817 (1.54%)
  Node YS02001774 (1.02%)
  
  
  ***************************
  Time-Step Critical Elements
  ***************************
  Link WS02006252WS02006251 (62.49%)
  Link WS02006280WS02006229 (16.86%)
  Link WS02006238WS02006235 (9.55%)
  
  
  ********************************
  Highest Flow Instability Indexes
  ********************************
  Link WS02006113WS02006111 (40)
  Link WS02006111WS02006112 (15)
  Link WS02006256WS02006235 (12)
  Link WS02004404WS02004405 (11)
  Link WS02006238WS02006235 (11)
  
  
  *************************
  Routing Time Step Summary
  *************************
  Minimum Time Step           :     0.01 sec
  Average Time Step           :     1.58 sec
  Maximum Time Step           :     6.46 sec
  Percent in Steady State     :    -0.00
  Average Iterations per Step :     2.85
  Percent Not Converging      :     9.07
  
  
  ***************************
  Subcatchment Runoff Summary
  ***************************
  
  ------------------------------------------------------------------------------------------------------------------------------
                            Total      Total      Total      Total     Imperv       Perv      Total       Total     Peak  Runoff
                           Precip      Runon       Evap      Infil     Runoff     Runoff     Runoff      Runoff   Runoff   Coeff
  Subcatchment                 mm         mm         mm         mm         mm         mm         mm    10^6 ltr      LPS
  ------------------------------------------------------------------------------------------------------------------------------
  sub0                      42.15       0.00       0.00       0.98      37.95       1.98      39.92        0.03    20.90   0.947
  sub1                      42.15       0.00       0.00       1.46      32.51       2.70      35.21        0.23   120.57   0.835
  sub10                     42.15       0.00       0.00       0.93      30.47       1.81      32.27        0.36   194.23   0.766
  sub11                     42.15       0.00       0.00       0.86      28.32       1.69      30.01        0.35   205.58   0.712
  sub12                     42.15       0.00       0.00       1.50      28.79       2.95      31.74        0.28   174.43   0.753
  sub14                     42.15       0.00       0.00       0.93      26.82       1.81      28.63        0.27   157.02   0.679
  sub15                     42.15       0.00       0.00       4.11      24.11       6.57      30.68        0.53   255.33   0.728
  sub16                     42.15       0.00       0.00       4.40      23.52       7.57      31.10        0.33   173.24   0.738
  sub17                     42.15       0.00       0.00       4.70      25.96       7.93      33.89        0.29   150.78   0.804
  sub2                      42.15       0.00       0.00       6.37      23.76       8.07      31.83        0.30   117.81   0.755
  sub22                     42.15       0.00       0.00       7.22      22.51      10.33      32.84        2.07   911.78   0.779
  sub23                     42.15       0.00       0.00       5.47      23.18       8.60      31.78        1.52   729.23   0.754
  sub3                      42.15       0.00       0.00       6.77      23.52       7.54      31.06        0.70   250.71   0.737
  sub4                      42.15       0.00       0.00       1.56      31.98       2.54      34.52        0.72   276.87   0.819
  sub5                      42.15       0.00       0.00       0.83      31.45       1.62      33.07        0.37   199.32   0.784
  sub60                     42.15       0.00       0.00       1.33      27.70       2.57      30.27        0.40   234.73   0.718
  sub61                     42.15       0.00       0.00       2.04      27.67       3.82      31.50        0.58   335.34   0.747
  sub62                     42.15       0.00       0.00       0.91      29.50       1.75      31.24        0.86   463.26   0.741
  sub63                     42.15       0.00       0.00       3.69      23.70       6.32      30.03        0.68   359.48   0.712
  sub64                     42.15       0.00       0.00       1.78      26.98       3.15      30.13        0.72   363.31   0.715
  sub65                     42.15       0.00       0.00       1.63      29.12       2.87      31.99        0.88   421.51   0.759
  sub66                     42.15       0.00       0.00       4.21      22.90       5.49      28.39        1.32   516.15   0.674
  sub67                     42.15       0.00       0.00       0.91      30.25       1.81      32.06        0.60   373.52   0.761
  sub68                     42.15       0.00       0.00       1.56      26.71       2.93      29.64        0.82   457.33   0.703
  sub69                     42.15       0.00       0.00       1.39      28.32       3.62      31.93        1.18   560.44   0.758
  sub7                      42.15       0.00       0.00       0.99      28.75       1.95      30.70        0.10    62.24   0.728
  sub70                     42.15       0.00       0.00       4.52      22.67       7.21      29.88        0.86   303.82   0.709
  sub71                     42.15       0.00       0.00       0.83      26.79       1.58      28.37        0.74   374.63   0.673
  sub72                     42.15       0.00       0.00       0.79      28.93       1.46      30.39        0.42   188.04   0.721
  sub8                      42.15       0.00       0.00       0.97      27.94       1.89      29.83        0.19   110.65   0.708
  sub9                      42.15       0.00       0.00       0.94      27.08       1.83      28.91        0.14    80.55   0.686
  

  ***********************
  LID Performance Summary
  ***********************

  --------------------------------------------------------------------------------------------------------------------
                                         Total      Evap     Infil   Surface    Drain    Initial     Final  Continuity
                                        Inflow      Loss      Loss   Outflow   Outflow   Storage   Storage       Error
  Subcatchment      LID Control             mm        mm        mm        mm        mm        mm        mm           %
  --------------------------------------------------------------------------------------------------------------------
  sub1              GreenRoof            42.15      0.00      0.00      0.00      0.00      7.05     49.25       -0.11
  sub10             GreenRoof            42.15      0.00      0.00      0.00      0.00      7.05     49.25       -0.11
  sub11             GreenRoof            42.15      0.00      0.00      0.00      0.00      7.05     49.25       -0.11
  sub12             GreenRoof            42.15      0.00      0.00      0.00      0.00      7.05     49.25       -0.11
  sub14             GreenRoof            42.15      0.00      0.00      0.00      0.00      7.05     49.25       -0.11
  sub15             GreenRoof            42.15      0.00      0.00      0.00      0.00      7.05     49.25       -0.11
  sub16             GreenRoof            42.15      0.00      0.00      0.00      0.00      7.05     49.25       -0.11
  sub17             GreenRoof            42.15      0.00      0.00      0.00      0.00      7.05     49.25       -0.11
  sub2              GreenRoof            42.15      0.00      0.00      0.00      0.00      7.05     49.25       -0.11
  sub22             GreenRoof            42.15      0.00      0.00      0.00      0.00      7.05     49.25       -0.11
  sub23             GreenRoof            42.15      0.00      0.00      0.00      0.00      7.05     49.25       -0.11
  sub3              GreenRoof            42.15      0.00      0.00      0.00      0.00      7.05     49.25       -0.11
  sub4              GreenRoof            42.15      0.00      0.00      0.00      0.00      7.05     49.25       -0.11
  sub5              GreenRoof            42.15      0.00      0.00      0.00      0.00      7.05     49.25       -0.11
  sub60             GreenRoof            42.15      0.00      0.00      0.00      0.00      7.05     49.25       -0.11
  sub61             GreenRoof            42.15      0.00      0.00      0.00      0.00      7.05     49.25       -0.11
  sub62             GreenRoof            42.15      0.00      0.00      0.00      0.00      7.05     49.25       -0.11
  sub63             GreenRoof            42.15      0.00      0.00      0.00      0.00      7.05     49.25       -0.11
  sub64             GreenRoof            42.15      0.00      0.00      0.00      0.00      7.05     49.25       -0.11
  sub65             GreenRoof            42.15      0.00      0.00      0.00      0.00      7.05     49.25       -0.11
  sub66             GreenRoof            42.15      0.00      0.00      0.00      0.00      7.05     49.25       -0.11
  sub67             GreenRoof            42.15      0.00      0.00      0.00      0.00      7.05     49.25       -0.11
  sub68             GreenRoof            42.15      0.00      0.00      0.00      0.00      7.05     49.25       -0.11
  sub69             GreenRoof            42.15      0.00      0.00      0.00      0.00      7.05     49.25       -0.11
  sub7              GreenRoof            42.15      0.00      0.00      0.00      0.00      7.05     49.25       -0.11
  sub70             GreenRoof            42.15      0.00      0.00      0.00      0.00      7.05     49.25       -0.11
  sub71             GreenRoof            42.15      0.00      0.00      0.00      0.00      7.05     49.25       -0.11
  sub72             GreenRoof            42.15      0.00      0.00      0.00      0.00      7.05     49.25       -0.11
  sub8              GreenRoof            42.15      0.00      0.00      0.00      0.00      7.05     49.25       -0.11
  sub9              GreenRoof            42.15      0.00      0.00      0.00      0.00      7.05     49.25       -0.11
  
  ******************
  Node Depth Summary
  ******************
  
  ---------------------------------------------------------------------------------
                                 Average  Maximum  Maximum  Time of Max    Reported
                                   Depth    Depth      HGL   Occurrence   Max Depth
  Node                 Type       Meters   Meters   Meters  days hr:min      Meters
  ---------------------------------------------------------------------------------
  HS02004478           JUNCTION     0.13     1.51    10.73     0  01:41        1.32
  HS02004479           JUNCTION     0.20     1.85    11.05     0  01:38        1.85
  HS02004480           JUNCTION     0.16     1.81    11.05     0  01:38        1.81
  HS02004770           JUNCTION     0.19     1.42    11.25     0  01:37        1.42
  HS02004777           JUNCTION     0.21     1.48    11.28     0  01:37        1.48
  HS02004785           JUNCTION     0.11     1.49    11.39     0  01:38        1.49
  HS02004788           JUNCTION     0.08     1.42    11.32     0  01:37        1.42
  HS02004792           JUNCTION     0.11     1.60    11.12     0  01:36        1.60
  HS02004799           JUNCTION     0.21     1.76    10.97     0  01:38        1.76
  HS02004802           JUNCTION     0.23     1.92    11.05     0  01:38        1.92
  HS02004807           JUNCTION     0.19     1.92    11.09     0  01:38        1.92
  HS02004817           JUNCTION     0.51     2.44    11.29     0  01:38        2.44
  HS02004824           JUNCTION     0.08     2.01    11.41     0  01:41        1.16
  HS02004830           JUNCTION     0.09     2.03    11.50     0  01:41        1.08
  HS02004837           JUNCTION     0.07     2.04    11.62     0  01:41        0.96
  HS02004842           JUNCTION     0.37     2.22    11.49     0  01:41        1.25
  HS02004848           JUNCTION     0.05     2.05    11.65     0  01:41        0.90
  HS02004852           JUNCTION     0.05     2.11    11.63     0  01:41        0.95
  HS02004856           JUNCTION     0.11     2.07    11.50     0  01:41        1.00
  HS02004862           JUNCTION     0.06     1.94    11.33     0  01:41        0.99
  HS02004870           JUNCTION     0.05     1.84    11.13     0  01:41        1.02
  HS02004876           JUNCTION     0.09     1.88    10.91     0  01:41        1.20
  HS02004881           JUNCTION     0.04     1.83    10.86     0  01:41        1.12
  HS02004901           JUNCTION     0.19     1.42    11.24     0  01:37        1.42
  WS02001211           JUNCTION     0.63     0.86     5.69     0  01:45        0.85
  WS02001212           JUNCTION     0.37     0.63     5.69     0  01:44        0.62
  WS02001213           JUNCTION     0.59     0.95     5.71     0  01:44        0.86
  WS02003059           JUNCTION     0.66     0.96     5.65     0  01:46        0.96
  WS02003060           JUNCTION     0.38     0.68     5.61     0  01:47        0.68
  WS02003066           JUNCTION     0.23     0.46     6.01     0  01:39        0.44
  WS02003067           JUNCTION     0.56     0.95     6.27     0  01:39        0.88
  WS02003069           JUNCTION     0.43     0.77     5.35     0  01:48        0.77
  WS02003072           JUNCTION     0.49     0.81     5.18     0  01:46        0.80
  WS02003073           JUNCTION     0.29     0.51     4.58     0  01:47        0.51
  WS02004138           JUNCTION     0.13     0.14     7.39     0  00:29        0.14
  WS02004139           JUNCTION     0.57     0.77     5.68     0  01:43        0.77
  WS02004401           JUNCTION     0.72     2.66     8.66     0  01:38        2.66
  WS02004402           JUNCTION     0.74     2.74     8.70     0  01:38        2.74
  WS02004403           JUNCTION     0.76     1.95     7.88     0  01:37        1.61
  WS02004404           JUNCTION     0.82     1.94     7.79     0  01:37        1.64
  WS02004405           JUNCTION     0.82     1.92     7.77     0  01:37        1.58
  WS02004406           JUNCTION     0.82     1.98     7.81     0  01:37        1.48
  WS02004407           JUNCTION     0.24     0.85     7.16     0  01:41        0.84
  WS02004409           JUNCTION     0.51     1.34     7.11     0  01:41        1.33
  WS02004410           JUNCTION     0.52     1.25     6.97     0  01:39        1.25
  WS02004411           JUNCTION     0.53     1.26     6.94     0  01:39        1.17
  WS02004412           JUNCTION     0.55     1.23     6.87     0  01:39        1.08
  WS02004413           JUNCTION     0.69     1.58     7.05     0  01:38        1.13
  WS02006109           JUNCTION     0.85     2.64     9.26     0  01:37        2.64
  WS02006110           JUNCTION     0.82     2.76     9.34     0  01:37        2.33
  WS02006111           JUNCTION     0.32     2.68     9.39     0  01:37        1.58
  WS02006112           JUNCTION     0.91     2.68     8.56     0  01:37        2.20
  WS02006113           JUNCTION     0.41     2.73     9.62     0  01:37        1.72
  WS02006115           JUNCTION     0.62     2.33     8.47     0  01:37        1.79
  WS02006116           JUNCTION     0.70     2.26     8.30     0  01:37        1.80
  WS02006228           JUNCTION     0.88     3.03     9.68     0  01:37        2.96
  WS02006229           JUNCTION     0.87     3.25     9.94     0  01:37        3.12
  WS02006230           JUNCTION     0.83     2.65     9.39     0  01:37        2.65
  WS02006231           JUNCTION     0.58     2.24     9.36     0  01:38        2.24
  WS02006232           JUNCTION     0.69     2.18     9.22     0  01:37        2.18
  WS02006234           JUNCTION     0.59     1.96     9.12     0  01:36        1.96
  WS02006235           JUNCTION     0.61     2.00     9.16     0  01:36        1.93
  WS02006238           JUNCTION     0.63     2.04     9.19     0  01:38        1.93
  WS02006239           JUNCTION     0.58     2.03     9.24     0  01:35        1.91
  WS02006240           JUNCTION     0.54     2.10     9.39     0  01:36        2.10
  WS02006242           JUNCTION     0.59     1.55     8.82     0  01:36        1.55
  WS02006243           JUNCTION     0.48     1.48     8.90     0  01:36        1.48
  WS02006245           JUNCTION     0.47     1.56     9.04     0  01:36        1.27
  WS02006247           JUNCTION     0.48     1.47     8.97     0  01:36        1.23
  WS02006248           JUNCTION     0.43     1.10     8.69     0  01:36        1.10
  WS02006249           JUNCTION     0.46     1.09     8.69     0  01:37        1.09
  WS02006251           JUNCTION     0.48     2.21     9.88     0  01:41        2.05
  WS02006252           JUNCTION     0.35     1.50     9.74     0  00:00        1.50
  WS02006253           JUNCTION     0.52     2.93    10.57     0  01:41        2.48
  WS02006256           JUNCTION     0.91     2.35     9.28     0  00:00        2.35
  WS02006280           JUNCTION     0.17     1.83    10.10     0  01:37        1.62
  WS02006284           JUNCTION     0.45     2.08    10.48     0  01:37        1.77
  WS02006287           JUNCTION     0.18     1.67    10.63     0  01:41        1.50
  WSF200               JUNCTION     0.22     0.54     5.78     0  01:39        0.51
  YS02001580           JUNCTION     0.03     1.05     9.59     0  01:38        0.73
  YS02001583           JUNCTION     0.07     1.14     9.64     0  01:38        0.79
  YS02001586           JUNCTION     0.10     1.13     9.30     0  01:38        1.13
  YS02001590           JUNCTION     0.18     1.40     9.26     0  01:37        1.40
  YS02001593           JUNCTION     0.12     1.46     9.32     0  01:37        1.46
  YS02001596           JUNCTION     0.16     1.80     9.22     0  01:37        1.80
  YS02001600           JUNCTION     0.21     1.87     9.00     0  01:37        1.87
  YS02001601           JUNCTION     0.39     2.06     8.90     0  01:37        2.06
  YS02001602           JUNCTION     0.32     1.87     8.77     0  01:38        1.87
  YS02001605           JUNCTION     0.30     1.78     8.68     0  01:38        1.78
  YS02001607           JUNCTION     0.31     1.68     8.53     0  01:39        1.64
  YS02001610           JUNCTION     0.36     1.68     8.48     0  01:39        1.68
  YS02001613           JUNCTION     0.32     1.70     8.54     0  01:39        1.64
  YS02001616           JUNCTION     0.25     1.61     8.52     0  01:39        1.56
  YS02001619           JUNCTION     0.23     1.61     8.54     0  01:39        1.54
  YS02001622           JUNCTION     0.22     1.62     8.52     0  01:39        1.53
  YS02001625           JUNCTION     0.49     1.78     8.38     0  01:39        1.78
  YS02001629           JUNCTION     0.34     1.85     8.40     0  01:39        1.77
  YS02001633           JUNCTION     0.43     1.87     8.32     0  01:44        1.79
  YS02001641           JUNCTION     0.42     1.72     8.15     0  01:51        1.72
  YS02001644           JUNCTION     0.42     1.58     8.01     0  01:51        1.58
  YS02001647           JUNCTION     0.24     1.24     7.85     0  01:51        1.18
  YS02001649           JUNCTION     0.32     1.33     7.72     0  01:46        1.29
  YS02001652           JUNCTION     0.21     1.20     7.80     0  01:43        1.08
  YS02001655           JUNCTION     0.13     0.89     7.74     0  01:46        0.83
  YS02001658           JUNCTION     0.06     0.58     7.72     0  01:47        0.57
  YS02001661           JUNCTION     0.10     0.32     7.73     0  01:40        0.32
  YS02001664           JUNCTION     0.03     0.23     8.15     0  01:40        0.23
  YS02001745           JUNCTION     0.03     0.20     7.72     0  01:39        0.20
  YS02001748           JUNCTION     0.07     0.49     7.57     0  01:48        0.47
  YS02001751           JUNCTION     0.11     0.70     7.58     0  01:47        0.69
  YS02001754           JUNCTION     0.20     0.98     7.59     0  01:47        0.96
  YS02001757           JUNCTION     0.40     1.31     7.57     0  01:47        1.29
  YS02001759           JUNCTION     0.33     1.21     7.58     0  01:47        1.19
  YS02001762           JUNCTION     0.31     1.18     7.58     0  01:45        1.16
  YS02001765           JUNCTION     0.28     1.16     7.61     0  01:44        1.14
  YS02001767           JUNCTION     0.26     1.15     7.63     0  01:44        1.15
  YS02001770           JUNCTION     0.27     1.11     7.61     0  01:46        1.10
  YS02001774           JUNCTION     0.33     1.18     7.60     0  01:46        1.17
  YS02001779           JUNCTION     0.16     0.91     7.60     0  01:46        0.90
  YS02001783           JUNCTION     0.15     1.61     7.75     0  01:47        1.39
  YS02001784           JUNCTION     0.18     1.57     7.64     0  01:47        1.34
  YS02001786           JUNCTION     0.15     1.49     7.52     0  01:47        1.20
  YS02001788           JUNCTION     0.11     1.46     7.44     0  01:47        1.08
  YS02001790           JUNCTION     0.13     1.57     7.22     0  01:47        1.26
  YS02001791           JUNCTION     0.09     1.46     6.93     0  01:47        1.26
  YS02001793           JUNCTION     0.07     1.89     6.73     0  01:47        1.79
  YS02001882           JUNCTION     0.20     1.67     8.39     0  01:48        1.67
  YS02001884           JUNCTION     0.29     1.76     8.38     0  01:48        1.76
  YS02001887           JUNCTION     0.37     1.81     8.35     0  01:48        1.81
  YS02001890           JUNCTION     0.40     1.81     8.32     0  01:43        1.81
  YS02001895           JUNCTION     0.17     1.56     8.31     0  01:47        1.55
  YS02001898           JUNCTION     0.18     1.55     8.29     0  01:47        1.55
  YS02001901           JUNCTION     0.29     1.66     8.26     0  01:47        1.65
  YS02001904           JUNCTION     0.27     1.63     8.26     0  01:47        1.59
  YS02001907           JUNCTION     0.60     1.96     8.25     0  01:47        1.91
  YS02001910           JUNCTION     0.39     1.74     8.24     0  01:47        1.70
  YS02001915           JUNCTION     0.20     1.51     8.23     0  01:47        1.48
  YS02001918           JUNCTION     0.08     1.17     8.24     0  01:45        1.14
  YS02001920           JUNCTION     0.16     1.25     8.26     0  01:45        1.21
  YS02001923           JUNCTION     0.05     1.00     8.26     0  01:45        0.96
  YS02001926           JUNCTION     0.10     0.81     8.25     0  01:45        0.78
  YS02001929           JUNCTION     0.04     0.56     8.25     0  01:44        0.55
  YS02006553           JUNCTION     0.60     1.98     8.27     0  01:47        1.89
  YS02006556           JUNCTION     0.57     1.96     8.28     0  01:47        1.84
  YS02006558           JUNCTION     0.62     2.01     8.28     0  01:47        1.87
  YS02006561           JUNCTION     0.09     1.18     7.84     0  01:47        1.00
  YS02163301           JUNCTION     0.37     1.90     8.42     0  01:39        1.77
  YS02163601           JUNCTION     0.47     1.84     8.24     0  01:51        1.84
  YS02164001           JUNCTION     0.41     1.77     8.22     0  01:51        1.77
  YSB1154              JUNCTION     0.34     2.10    11.16     0  01:38        2.10
  YSB1171              JUNCTION     0.49     1.95    10.85     0  01:38        1.95
  YSB1174              JUNCTION     0.29     1.95    11.06     0  01:38        1.95
  YSB6556              JUNCTION     0.23     1.80    10.97     0  01:38        1.80
  CC-1                 OUTFALL      0.00     0.00     0.00     0  00:00        0.00
  CC-2                 OUTFALL      0.00     0.00     0.00     0  00:00        0.00
  JK-1                 OUTFALL      0.00     0.00     0.00     0  00:00        0.00
  JK-2                 OUTFALL      0.00     0.00     0.00     0  00:00        0.00
  WSC                  OUTFALL      0.29     0.51     1.18     0  01:48        0.51
  CC-storage           STORAGE      1.09     1.79     7.29     0  02:30        1.79
  JK-storage           STORAGE      2.94     5.80     6.60     0  01:47        5.80
  XR-storage           STORAGE      8.01     9.26     7.26     0  08:00        9.26
  
  
  *******************
  Node Inflow Summary
  *******************
  
  -------------------------------------------------------------------------------------------------
                                  Maximum  Maximum                  Lateral       Total        Flow
                                  Lateral    Total  Time of Max      Inflow      Inflow     Balance
                                   Inflow   Inflow   Occurrence      Volume      Volume       Error
  Node                 Type           LPS      LPS  days hr:min    10^6 ltr    10^6 ltr     Percent
  -------------------------------------------------------------------------------------------------
  HS02004478           JUNCTION      0.00  2188.03     0  01:38           0        6.38      -0.019
  HS02004479           JUNCTION      0.00   388.40     0  01:38           0       0.661       0.113
  HS02004480           JUNCTION      0.00  2172.41     0  01:39           0        5.16       0.041
  HS02004770           JUNCTION    729.23   848.90     0  01:37        1.52        1.75       0.174
  HS02004777           JUNCTION      0.03   855.60     0  01:37    0.000864        1.62       0.323
  HS02004785           JUNCTION      0.15   859.65     0  01:37     0.00432        1.61       0.053
  HS02004788           JUNCTION    257.00  1106.42     0  01:37       0.576        2.19      -0.013
  HS02004792           JUNCTION    912.06  1665.89     0  01:38        2.08        4.27       0.008
  HS02004799           JUNCTION    157.02  1801.11     0  01:39       0.273        4.51       0.059
  HS02004802           JUNCTION      0.00   319.63     0  02:06           0        1.27       0.294
  HS02004807           JUNCTION    205.58   511.69     0  01:38       0.349        1.33       0.317
  HS02004817           JUNCTION      0.60   510.66     0  01:38      0.0173        1.05       1.565
  HS02004824           JUNCTION    276.92   731.40     0  01:38       0.722        1.29       0.022
  HS02004830           JUNCTION      0.15   726.61     0  01:38     0.00432       0.818       0.166
  HS02004837           JUNCTION    200.58   967.97     0  01:38       0.539        1.03       0.104
  HS02004842           JUNCTION      0.00   878.79     0  01:39           0        0.71       1.843
  HS02004848           JUNCTION    250.71  1101.68     0  01:39       0.699        1.24       0.002
  HS02004852           JUNCTION      0.00  1054.32     0  01:39           0        1.09      -0.054
  HS02004856           JUNCTION     80.55  1065.33     0  01:40       0.139        1.23       0.138
  HS02004862           JUNCTION    118.01  1188.63     0  01:41       0.302        1.53      -0.016
  HS02004870           JUNCTION    110.65  1294.91     0  01:40       0.191        1.72       0.001
  HS02004876           JUNCTION    120.57  1407.39     0  01:40       0.234        1.96       0.029
  HS02004881           JUNCTION     62.24  1360.15     0  01:40       0.103        2.06       0.043
  HS02004901           JUNCTION    173.24   386.97     0  01:44       0.326       0.394       0.436
  WS02001211           JUNCTION      7.35   353.71     0  01:43       0.212        5.45       0.609
  WS02001212           JUNCTION      0.00   417.46     0  01:41           0        5.42       0.290
  WS02001213           JUNCTION      0.00   354.99     0  01:40           0        5.42       0.322
  WS02003059           JUNCTION      0.00   429.42     0  01:40           0        5.42       0.588
  WS02003060           JUNCTION     16.53  1515.70     0  01:47       0.476        14.3       0.103
  WS02003066           JUNCTION      0.00  1261.52     0  01:41           0        8.44       0.017
  WS02003067           JUNCTION      0.00  1248.40     0  01:42           0        8.45       0.052
  WS02003069           JUNCTION      0.32  1477.78     0  01:47     0.00922        14.3       0.109
  WS02003072           JUNCTION      0.00  1469.57     0  01:48           0        14.2       0.147
  WS02003073           JUNCTION      1.82  1474.49     0  01:47      0.0524        14.3       0.151
  WS02004138           JUNCTION      0.00   380.00     0  00:00           0        5.25       0.053
  WS02004139           JUNCTION      0.32   301.47     0  01:42     0.00924        5.26       0.509
  WS02004401           JUNCTION      0.00  1283.29     0  01:39           0        8.55       0.123
  WS02004402           JUNCTION      0.00  1282.89     0  01:39           0        8.54       0.125
  WS02004403           JUNCTION      0.00  1282.14     0  01:39           0        8.53       0.119
  WS02004404           JUNCTION      0.16  1280.96     0  01:39     0.00467        8.52       0.101
  WS02004405           JUNCTION      0.04  1280.51     0  01:39      0.0011        8.52       0.152
  WS02004406           JUNCTION      0.00  1282.41     0  01:39           0         8.5       0.251
  WS02004407           JUNCTION      0.00  1282.83     0  01:39           0        8.48       0.019
  WS02004409           JUNCTION      0.00  1301.95     0  01:38           0        8.48       0.037
  WS02004410           JUNCTION      0.00  1263.84     0  01:38           0        8.48       0.051
  WS02004411           JUNCTION      0.00  1250.21     0  01:39           0        8.47       0.068
  WS02004412           JUNCTION      0.00  1248.86     0  01:41           0        8.47       0.091
  WS02004413           JUNCTION      0.00  1248.30     0  01:41           0        8.46       0.155
  WS02006109           JUNCTION      1.23  1208.36     0  01:37      0.0354        8.33       0.113
  WS02006110           JUNCTION      0.00  1207.05     0  01:37           0         8.3       0.085
  WS02006111           JUNCTION      0.00  1198.07     0  01:37           0        8.29      -0.003
  WS02006112           JUNCTION    150.78  1283.75     0  01:39       0.291        8.58       0.210
  WS02006113           JUNCTION      0.00  1205.66     0  01:37           0        8.29       0.027
  WS02006115           JUNCTION      0.00  1284.11     0  01:39           0        8.56       0.081
  WS02006116           JUNCTION      0.00  1283.77     0  01:39           0        8.55       0.035
  WS02006228           JUNCTION      0.00  1208.30     0  01:37           0         8.3       0.049
  WS02006229           JUNCTION      0.00  2123.22     0  01:42           0        9.68       0.063
  WS02006230           JUNCTION     10.28   938.40     0  01:41       0.296        4.73       0.154
  WS02006231           JUNCTION      0.00   453.29     0  01:41           0        4.02      -0.076
  WS02006232           JUNCTION      0.00   453.47     0  01:51           0           4       0.119
  WS02006234           JUNCTION      0.00   468.79     0  03:59           0        3.97      -0.088
  WS02006235           JUNCTION      0.00   470.55     0  03:59           0         3.9       0.022
  WS02006238           JUNCTION      0.00   417.12     0  03:28           0        3.52      -0.134
  WS02006239           JUNCTION      0.00   417.07     0  03:28           0        3.49      -0.299
  WS02006240           JUNCTION      0.00   416.99     0  03:28           0        3.46      -0.010
  WS02006242           JUNCTION      0.00   416.96     0  03:28           0        3.45      -0.028
  WS02006243           JUNCTION      0.00   515.71     0  01:36           0        3.21      -0.285
  WS02006245           JUNCTION      0.00   416.90     0  03:28           0        3.21       0.379
  WS02006247           JUNCTION      0.00   582.09     0  01:36           0        3.21      -0.018
  WS02006248           JUNCTION      0.00   628.73     0  01:36           0        3.32      -0.144
  WS02006249           JUNCTION      0.00  1366.24     0  01:41           0        5.05       0.216
  WS02006251           JUNCTION      0.08  1326.61     0  01:41     0.00222        5.09      -0.018
  WS02006252           JUNCTION      0.00   400.00     0  00:00           0        2.93      -0.053
  WS02006253           JUNCTION     20.90  1299.41     0  01:41      0.0323        2.16       0.026
  WS02006256           JUNCTION      0.00   300.00     0  00:00           0       0.821      -0.428
  WS02006280           JUNCTION      0.00  2120.81     0  01:42           0        6.35      -0.030
  WS02006284           JUNCTION      0.10  2119.39     0  01:42     0.00275        6.35       0.008
  WS02006287           JUNCTION      0.00  2116.55     0  01:42           0        6.35       0.043
  WSF200               JUNCTION      0.00  1257.52     0  01:41           0        8.44       0.009
  YS02001580           JUNCTION      0.00   151.48     0  01:38           0     0.00424      -4.622
  YS02001583           JUNCTION      0.00   255.52     0  01:38           0      0.0144     -11.454
  YS02001586           JUNCTION    303.82   304.39     0  01:43       0.863       0.875       0.209
  YS02001590           JUNCTION      0.00   304.23     0  01:43           0        0.86      -0.036
  YS02001593           JUNCTION      0.00   304.28     0  01:43           0       0.861      -0.001
  YS02001596           JUNCTION      0.00   304.31     0  01:43           0       0.861       0.006
  YS02001600           JUNCTION      0.00   304.52     0  01:43           0        0.86      -0.019
  YS02001601           JUNCTION    560.44   857.16     0  01:41        1.18        2.04       0.035
  YS02001602           JUNCTION      0.00   583.81     0  01:38           0        1.71       0.015
  YS02001605           JUNCTION      0.00   584.21     0  01:38           0        1.68       0.013
  YS02001607           JUNCTION      0.00   583.72     0  01:38           0        1.68       0.102
  YS02001610           JUNCTION      0.00   563.75     0  01:38           0        1.68       0.119
  YS02001613           JUNCTION      0.00   528.47     0  01:38           0        1.68       0.081
  YS02001616           JUNCTION      0.00   481.76     0  01:39           0        1.68       0.011
  YS02001619           JUNCTION    516.15   931.00     0  01:39        1.32           3      -0.011
  YS02001622           JUNCTION      0.00   935.48     0  01:39           0           3      -0.014
  YS02001625           JUNCTION      0.00   926.47     0  01:39           0           3       0.390
  YS02001629           JUNCTION      0.00   928.19     0  01:39           0        2.99      -0.078
  YS02001633           JUNCTION    421.71  1334.48     0  01:41       0.887        3.87       0.083
  YS02001641           JUNCTION      0.00  1333.75     0  01:40           0        3.88       0.072
  YS02001644           JUNCTION    363.35  1697.36     0  01:41       0.725        4.59       0.066
  YS02001647           JUNCTION      0.00  1698.23     0  01:41           0        4.58       0.004
  YS02001649           JUNCTION      0.00  2057.05     0  01:40           0        5.27      -0.003
  YS02001652           JUNCTION      0.00   448.16     0  01:40           0       0.687      -0.422
  YS02001655           JUNCTION      0.15   411.53     0  01:47     0.00443       0.687       0.279
  YS02001658           JUNCTION      0.00   358.98     0  01:40           0       0.683      -0.013
  YS02001661           JUNCTION      0.00   359.38     0  01:40           0       0.682       0.028
  YS02001664           JUNCTION    359.48   359.48     0  01:40       0.682       0.682      -0.006
  YS02001745           JUNCTION    234.73   234.73     0  01:39       0.398       0.398       0.305
  YS02001748           JUNCTION      0.04   234.73     0  01:39      0.0013       0.421      -0.346
  YS02001751           JUNCTION      0.01   269.22     0  01:48    0.000317       0.423       0.408
  YS02001754           JUNCTION      0.26   252.77     0  01:47     0.00749       0.428      -0.605
  YS02001757           JUNCTION      0.00  2721.89     0  01:41           0        7.16       0.063
  YS02001759           JUNCTION    335.38   684.69     0  01:44       0.579        1.47      -0.013
  YS02001762           JUNCTION      0.00   402.43     0  01:44           0       0.889       0.014
  YS02001765           JUNCTION      0.00   415.73     0  01:43           0       0.887       0.016
  YS02001767           JUNCTION      0.54   458.12     0  01:43      0.0154       0.884      -0.010
  YS02001770           JUNCTION    463.42   473.74     0  01:43       0.861       0.927      -0.017
  YS02001774           JUNCTION      0.00   124.01     0  01:40           0      0.0987       1.027
  YS02001779           JUNCTION      0.01    96.74     0  01:43    0.000144      0.0349      -0.198
  YS02001783           JUNCTION      0.00  1115.33     0  01:45           0        2.63       0.007
  YS02001784           JUNCTION      1.06  1116.98     0  01:45      0.0305        2.66       0.022
  YS02001786           JUNCTION      0.06  1117.32     0  01:45     0.00162        2.66       0.023
  YS02001788           JUNCTION      0.07  1121.03     0  01:45     0.00204        2.66       0.004
  YS02001790           JUNCTION      0.15  1125.34     0  01:45     0.00446        2.66       0.001
  YS02001791           JUNCTION      0.00  1232.11     0  01:45           0        2.66      -0.006
  YS02001793           JUNCTION      0.00  1177.06     0  01:45           0        2.66      -0.003
  YS02001882           JUNCTION      0.00    45.76     0  01:40           0      0.0132       3.903
  YS02001884           JUNCTION      0.00    97.94     0  01:39           0      0.0495       5.099
  YS02001887           JUNCTION    373.97   373.97     0  01:39       0.609       0.643       0.681
  YS02001890           JUNCTION      0.00   375.93     0  01:40           0       0.602       0.835
  YS02001895           JUNCTION      0.00   378.10     0  01:40           0       0.597       0.290
  YS02001898           JUNCTION      0.00   368.15     0  01:41           0       0.595      -0.005
  YS02001901           JUNCTION      0.00   376.76     0  01:41           0       0.598       0.532
  YS02001904           JUNCTION      0.00   377.85     0  01:41           0       0.608       0.454
  YS02001907           JUNCTION      0.00   772.17     0  01:47           0        1.85       0.975
  YS02001910           JUNCTION      0.00   556.11     0  01:47           0        1.24       0.575
  YS02001915           JUNCTION    374.65   555.91     0  01:47       0.742        1.26       0.113
  YS02001918           JUNCTION      0.00   278.67     0  01:53           0       0.519       0.034
  YS02001920           JUNCTION      2.87   255.11     0  01:47      0.0827       0.509       0.190
  YS02001923           JUNCTION      0.04   260.54     0  01:47     0.00109       0.422      -0.117
  YS02001926           JUNCTION      0.05   242.25     0  01:49      0.0015        0.42       0.152
  YS02001929           JUNCTION    188.04   188.04     0  01:42       0.418       0.418      -0.006
  YS02006553           JUNCTION      0.00   773.34     0  01:47           0        1.84       0.644
  YS02006556           JUNCTION      0.00   775.86     0  01:47           0        1.85       0.445
  YS02006558           JUNCTION    458.21  1137.52     0  01:43       0.841        2.66       0.135
  YS02006561           JUNCTION      0.00  1137.51     0  01:43           0        2.63      -0.010
  YS02163301           JUNCTION      0.00   912.85     0  01:41           0        2.99       0.049
  YS02163601           JUNCTION      0.11  1334.76     0  01:41     0.00317        3.87       0.117
  YS02164001           JUNCTION      0.00  1334.86     0  01:41           0        3.87       0.056
  YSB1154              JUNCTION    199.32   199.32     0  01:40       0.375       0.375       0.375
  YSB1171              JUNCTION      0.00   379.98     0  01:38           0        0.66       0.953
  YSB1174              JUNCTION    174.43   174.43     0  01:39       0.277       0.278       0.432
  YSB6556              JUNCTION      0.00   199.79     0  01:40           0       0.376       0.274
  CC-1                 OUTFALL       0.00   683.00     0  00:00           0        2.23       0.000
  CC-2                 OUTFALL       0.00   683.00     0  00:00           0        2.05       0.000
  JK-1                 OUTFALL       0.00  1000.00     0  00:00           0       0.861       0.000
  JK-2                 OUTFALL       0.00  1000.00     0  00:00           0       0.908       0.000
  WSC                  OUTFALL       0.00  1473.73     0  01:48           0        14.2       0.000
  CC-storage           STORAGE       0.00  2607.35     0  01:43           0        9.36      -0.150
  JK-storage           STORAGE       0.00  1149.25     0  01:56           0        2.81      -0.342
  XR-storage           STORAGE     200.00   200.00     0  00:00        5.76        6.36       0.001
  
  
  **********************
  Node Surcharge Summary
  **********************
  
  Surcharging occurs when water rises above the top of the highest conduit.
  ---------------------------------------------------------------------
                                               Max. Height   Min. Depth
                                   Hours       Above Crown    Below Rim
  Node                 Type      Surcharged         Meters       Meters
  ---------------------------------------------------------------------
  HS02004478           JUNCTION        0.23          0.587        0.353
  HS02004479           JUNCTION        0.36          1.050        0.000
  HS02004480           JUNCTION        0.40          1.100        0.000
  HS02004770           JUNCTION        0.32          0.720        0.000
  HS02004777           JUNCTION        0.33          0.780        0.000
  HS02004785           JUNCTION        0.27          0.790        0.000
  HS02004788           JUNCTION        0.26          0.720        0.000
  HS02004792           JUNCTION        0.38          0.900        0.000
  HS02004799           JUNCTION        0.47          1.060        0.000
  HS02004802           JUNCTION        0.40          1.210        0.000
  HS02004807           JUNCTION        0.38          1.220        0.000
  HS02004817           JUNCTION        0.90          1.740        0.000
  HS02004824           JUNCTION        0.25          1.310        0.000
  HS02004830           JUNCTION        0.21          1.330        0.000
  HS02004837           JUNCTION        0.17          1.337        0.003
  HS02004842           JUNCTION        0.31          1.520        0.000
  HS02004848           JUNCTION        0.09          1.350        0.020
  HS02004852           JUNCTION        0.13          1.415        0.005
  HS02004856           JUNCTION        0.09          1.300        0.000
  HS02004862           JUNCTION        0.16          1.242        0.058
  HS02004870           JUNCTION        0.17          1.143        0.257
  HS02004876           JUNCTION        0.23          1.181        0.379
  HS02004881           JUNCTION        0.20          1.133        0.317
  HS02004901           JUNCTION        0.33          0.720        0.000
  WS02004401           JUNCTION        1.25          1.660        0.000
  WS02004402           JUNCTION        1.27          1.740        0.000
  WS02004403           JUNCTION        1.28          0.949        1.081
  WS02004404           JUNCTION        1.57          0.940        1.840
  WS02004405           JUNCTION        1.55          0.918        1.882
  WS02004406           JUNCTION        1.50          0.976        1.474
  WS02004409           JUNCTION        0.61          0.336        2.024
  WS02004410           JUNCTION        0.57          0.253        2.287
  WS02004411           JUNCTION        0.53          0.258        2.272
  WS02004412           JUNCTION        0.46          0.232        2.078
  WS02004413           JUNCTION        1.04          0.580        1.620
  WS02006109           JUNCTION        2.07          1.820        0.000
  WS02006110           JUNCTION        1.68          1.850        0.000
  WS02006111           JUNCTION        0.96          1.870        0.000
  WS02006112           JUNCTION        1.81          1.680        0.000
  WS02006113           JUNCTION        0.99          1.930        0.000
  WS02006115           JUNCTION        1.17          1.319        0.931
  WS02006116           JUNCTION        1.19          1.195        1.095
  WS02006228           JUNCTION        2.07          2.200        0.000
  WS02006229           JUNCTION        0.57          1.070        0.000
  WS02006230           JUNCTION        1.49          1.570        0.000
  WS02006231           JUNCTION        1.63          1.530        0.000
  WS02006232           JUNCTION        1.88          1.480        0.000
  WS02006234           JUNCTION        1.70          1.240        0.000
  WS02006235           JUNCTION        1.73          1.290        0.000
  WS02006238           JUNCTION        1.77          1.322        0.108
  WS02006239           JUNCTION        1.70          1.290        0.000
  WS02006240           JUNCTION        1.65          1.390        0.000
  WS02006242           JUNCTION        1.73          0.820        0.000
  WS02006243           JUNCTION        1.56          0.770        0.000
  WS02006245           JUNCTION        1.46          0.850        0.000
  WS02006247           JUNCTION        1.48          0.760        0.000
  WS02006248           JUNCTION        1.37          0.380        0.000
  WS02006249           JUNCTION        1.40          0.390        0.000
  WS02006251           JUNCTION        1.21          1.180        0.000
  WS02006252           JUNCTION        1.71          1.100        0.000
  WS02006253           JUNCTION        1.22          1.886        0.594
  WS02006256           JUNCTION        7.82          2.050        0.000
  WS02006280           JUNCTION        0.47          0.780        0.000
  WS02006284           JUNCTION        0.41          0.800        0.000
  WS02006287           JUNCTION        0.32          0.672        0.218
  YS02001580           JUNCTION        0.24          0.450        0.000
  YS02001583           JUNCTION        0.24          0.500        0.000
  YS02001586           JUNCTION        0.42          0.510        0.000
  YS02001590           JUNCTION        0.50          0.750        0.000
  YS02001593           JUNCTION        0.50          0.840        0.000
  YS02001596           JUNCTION        0.59          1.070        0.000
  YS02001600           JUNCTION        0.72          1.190        0.000
  YS02001601           JUNCTION        1.17          1.440        0.000
  YS02001602           JUNCTION        1.06          1.270        0.000
  YS02001605           JUNCTION        0.99          1.180        0.000
  YS02001607           JUNCTION        0.48          0.680        0.000
  YS02001610           JUNCTION        0.52          0.680        0.000
  YS02001613           JUNCTION        0.48          0.700        0.000
  YS02001616           JUNCTION        0.44          0.610        0.000
  YS02001619           JUNCTION        0.43          0.610        0.000
  YS02001622           JUNCTION        0.43          0.620        0.000
  YS02001625           JUNCTION        0.62          0.780        0.000
  YS02001629           JUNCTION        0.37          0.470        0.000
  YS02001633           JUNCTION        0.67          0.847        0.213
  YS02001641           JUNCTION        0.64          0.716        0.384
  YS02001644           JUNCTION        0.62          0.579        0.341
  YS02001647           JUNCTION        0.32          0.237        0.663
  YS02001649           JUNCTION        0.56          0.326        0.724
  YS02001652           JUNCTION        0.09          0.172        0.958
  YS02001757           JUNCTION        1.18          0.309        0.901
  YS02001759           JUNCTION        0.53          0.213        0.997
  YS02001762           JUNCTION        0.47          0.185        0.965
  YS02001765           JUNCTION        0.34          0.156        0.944
  YS02001767           JUNCTION        0.17          0.145        0.885
  YS02001770           JUNCTION        0.09          0.081        0.839
  YS02001774           JUNCTION        0.43          0.177        0.873
  YS02001783           JUNCTION        0.29          0.810        0.790
  YS02001784           JUNCTION        0.27          0.772        0.718
  YS02001786           JUNCTION        0.20          0.688        0.742
  YS02001788           JUNCTION        0.09          0.660        0.820
  YS02001790           JUNCTION        0.14          0.773        0.384
  YS02001791           JUNCTION        0.13          0.663        1.257
  YS02001793           JUNCTION        0.16          0.893        1.707
  YS02001882           JUNCTION        0.24          0.672        0.158
  YS02001884           JUNCTION        0.25          0.699        0.171
  YS02001887           JUNCTION        0.28          0.764        0.186
  YS02001890           JUNCTION        0.29          0.760        0.000
  YS02001895           JUNCTION        0.23          0.560        0.190
  YS02001898           JUNCTION        0.22          0.523        0.217
  YS02001901           JUNCTION        0.27          0.656        0.214
  YS02001904           JUNCTION        0.26          0.625        0.225
  YS02001907           JUNCTION        0.44          0.950        0.000
  YS02001910           JUNCTION        0.31          0.737        0.363
  YS02001915           JUNCTION        0.24          0.514        0.486
  YS02001918           JUNCTION        0.13          0.173        0.637
  YS02001920           JUNCTION        0.15          0.249        0.891
  YS02006553           JUNCTION        0.45          0.982        0.208
  YS02006556           JUNCTION        0.37          0.925        0.425
  YS02006558           JUNCTION        0.37          0.912        0.488
  YS02006561           JUNCTION        0.08          0.384        0.766
  YS02163301           JUNCTION        0.64          0.899        0.131
  YS02163601           JUNCTION        0.72          0.840        0.240
  YS02164001           JUNCTION        0.63          0.765        0.335
  YSB1154              JUNCTION        0.58          1.400        0.000
  YSB1171              JUNCTION        0.59          1.100        0.000
  YSB1174              JUNCTION        0.50          1.250        0.000
  YSB6556              JUNCTION        0.45          1.100        0.000
  
  
  *********************
  Node Flooding Summary
  *********************
  
  Flooding refers to all water that overflows a node, whether it ponds or not.
  --------------------------------------------------------------------------
                                                             Total   Maximum
                                 Maximum   Time of Max       Flood    Ponded
                        Hours       Rate    Occurrence      Volume     Depth
  Node                 Flooded       LPS   days hr:min    10^6 ltr    Meters
  --------------------------------------------------------------------------
  HS02004479              0.01     15.62      0  01:38       0.000     0.000
  HS02004480              0.01     35.54      0  01:38       0.000     0.000
  HS02004770              0.11    291.65      0  01:38       0.067     0.000
  HS02004777              0.01     64.82      0  01:37       0.001     0.000
  HS02004785              0.01     64.56      0  01:38       0.000     0.000
  HS02004788              0.01    483.94      0  01:37       0.004     0.000
  HS02004792              0.10    195.15      0  01:38       0.025     0.000
  HS02004799              0.01     19.02      0  01:41       0.000     0.000
  HS02004802              0.01      2.27      0  01:38       0.000     0.000
  HS02004807              0.01      5.05      0  01:38       0.000     0.000
  HS02004817              0.01     14.48      0  01:41       0.000     0.000
  HS02004824              0.01     25.03      0  01:41       0.000     0.000
  HS02004830              0.01     25.62      0  01:41       0.000     0.000
  HS02004842              0.01     98.27      0  01:41       0.001     0.000
  HS02004856              0.01     12.59      0  01:41       0.000     0.000
  HS02004901              0.19    386.91      0  01:44       0.156     0.000
  WS02004401              0.01     22.05      0  01:38       0.000     0.000
  WS02004402              0.01     49.28      0  01:38       0.000     0.000
  WS02006109              0.15    130.59      0  01:38       0.027     0.000
  WS02006110              0.01     53.77      0  01:37       0.000     0.000
  WS02006111              0.01    417.79      0  01:37       0.001     0.000
  WS02006112              0.01    174.42      0  01:37       0.001     0.000
  WS02006113              0.01     41.75      0  01:37       0.000     0.000
  WS02006228              0.01     58.25      0  01:37       0.000     0.000
  WS02006229              0.01    110.60      0  01:37       0.000     0.000
  WS02006230              0.42    485.03      0  01:42       0.417     0.000
  WS02006231              0.01      0.55      0  01:38       0.000     0.000
  WS02006232              0.10     11.56      0  01:38       0.000     0.000
  WS02006234              0.46    128.53      0  01:42       0.144     0.000
  WS02006235              0.01     22.72      0  01:38       0.000     0.000
  WS02006239              0.01    147.68      0  02:57       0.000     0.000
  WS02006240              0.01     88.28      0  02:57       0.000     0.000
  WS02006242              0.55    319.77      0  01:36       0.226     0.000
  WS02006243              0.01    404.36      0  01:36       0.001     0.000
  WS02006245              0.01    234.47      0  01:36       0.000     0.000
  WS02006247              0.01    517.14      0  01:36       0.002     0.000
  WS02006248              0.81    580.60      0  01:36       0.690     0.000
  WS02006249              1.12   1365.98      0  01:41       2.332     0.000
  WS02006251              0.01     59.30      0  01:41       0.000     0.000
  WS02006252              0.03    314.37      0  01:55       0.007     0.000
  WS02006256              0.72    296.17      0  03:50       0.369     0.000
  WS02006280              0.01    352.56      0  01:37       0.000     0.000
  WS02006284              0.01    315.52      0  01:37       0.000     0.000
  YS02001580              0.01     55.03      0  01:38       0.000     0.000
  YS02001583              0.01    135.81      0  01:38       0.000     0.000
  YS02001586              0.01    123.69      0  01:39       0.002     0.000
  YS02001590              0.01     93.55      0  01:37       0.000     0.000
  YS02001593              0.01     68.15      0  01:37       0.000     0.000
  YS02001596              0.01      5.59      0  01:37       0.000     0.000
  YS02001600              0.01      7.64      0  01:37       0.000     0.000
  YS02001601              0.35    458.52      0  01:42       0.335     0.000
  YS02001602              0.19     62.01      0  01:47       0.025     0.000
  YS02001605              0.01      2.57      0  01:39       0.000     0.000
  YS02001607              0.01      8.23      0  01:39       0.000     0.000
  YS02001610              0.07     33.94      0  01:39       0.002     0.000
  YS02001613              0.01     10.51      0  01:39       0.000     0.000
  YS02001616              0.01     28.18      0  01:39       0.000     0.000
  YS02001619              0.01    174.87      0  01:39       0.001     0.000
  YS02001622              0.01     73.20      0  01:39       0.000     0.000
  YS02001625              0.02     93.27      0  01:39       0.001     0.000
  YS02001629              0.01    254.64      0  01:39       0.001     0.000
  YS02001890              0.01     18.13      0  01:48       0.000     0.000
  YS02001907              0.01     12.85      0  01:47       0.000     0.000
  YSB1154                 0.01      1.65      0  01:38       0.000     0.000
  YSB1171                 0.01     65.57      0  01:41       0.001     0.000
  YSB1174                 0.01      4.66      0  01:38       0.000     0.000
  YSB6556                 0.01      6.41      0  01:38       0.000     0.000
  JK-storage              0.04    958.44      0  01:47       0.132     0.000
  
  
  **********************
  Storage Volume Summary
  **********************
  
  --------------------------------------------------------------------------------------------------
                         Average     Avg  Evap Exfil       Maximum     Max    Time of Max    Maximum
                          Volume    Pcnt  Pcnt  Pcnt        Volume    Pcnt     Occurrence    Outflow
  Storage Unit           1000 m3    Full  Loss  Loss       1000 m3    Full    days hr:min        LPS
  --------------------------------------------------------------------------------------------------
  CC-storage               3.029      47     0     0         4.997      78       0  02:30    1783.53
  JK-storage               0.148      51     0     0         0.291     100       0  01:47    2300.00
  XR-storage               0.961      67     0     0         1.111      77       0  08:00     380.00
  
  
  ***********************
  Outfall Loading Summary
  ***********************
  
  -----------------------------------------------------------
                         Flow       Avg       Max       Total
                         Freq      Flow      Flow      Volume
  Outfall Node           Pcnt       LPS       LPS    10^6 ltr
  -----------------------------------------------------------
  CC-1                  56.88    216.30    683.00       2.234
  CC-2                  60.60    137.75    683.00       2.053
  JK-1                  48.41     58.15   1000.00       0.861
  JK-2                  50.22     68.85   1000.00       0.908
  WSC                   99.97    585.38   1473.73      14.247
  -----------------------------------------------------------
  System                63.22   1066.43   1473.73      20.303
  
  
  ********************
  Link Flow Summary
  ********************
  
  -----------------------------------------------------------------------------
                                 Maximum  Time of Max   Maximum    Max/    Max/
                                  |Flow|   Occurrence   |Veloc|    Full    Full
  Link                 Type          LPS  days hr:min     m/sec    Flow   Depth
  -----------------------------------------------------------------------------
  1                    CONDUIT   1473.73     0  01:48      3.68    0.51    0.51
  HS02004478WS02006287 CONDUIT   2116.55     0  01:42      2.90    0.59    1.00
  HS02004479HS02004480 CONDUIT    398.69     0  01:38      0.57    0.39    1.00
  HS02004480HS02004478 CONDUIT   2188.03     0  01:38      3.13    9.22    1.00
  HS02004770HS02004777 CONDUIT    855.57     0  01:37      1.22    1.56    1.00
  HS02004777HS02004785 CONDUIT    859.50     0  01:37      1.38    1.06    1.00
  HS02004785HS02004788 CONDUIT    872.86     0  01:37      1.35    6.58    1.00
  HS02004788HS02004792 CONDUIT    834.22     0  01:49      1.42    0.55    1.00
  HS02004792HS02004799 CONDUIT   1644.16     0  01:39      2.35    1.01    1.00
  HS02004799HS02004480 CONDUIT   1800.30     0  01:39      2.57    2.27    1.00
  HS02004802HS02004478 CONDUIT    330.31     0  02:05      0.64    0.29    1.00
  HS02004807HS02004802 CONDUIT    319.63     0  02:06      0.58    0.61    1.00
  HS02004817HS02004807 CONDUIT    510.06     0  01:38      0.73    0.30    1.00
  HS02004817HS02004824 CONDUIT    507.88     0  01:38      0.73    0.23    1.00
  HS02004824HS02004830 CONDUIT    726.46     0  01:38      1.09    0.95    1.00
  HS02004830HS02004837 CONDUIT    771.33     0  01:38      1.22    0.77    1.00
  HS02004837HS02004842 CONDUIT    878.79     0  01:39      1.26    0.52    1.00
  HS02004842HS02004848 CONDUIT    879.36     0  01:39      1.39    0.51    1.00
  HS02004848HS02004852 CONDUIT   1054.32     0  01:39      1.70    1.19    1.00
  HS02004852HS02004856 CONDUIT    987.05     0  01:40      1.52    1.13    1.00
  HS02004856HS02004862 CONDUIT   1071.31     0  01:41      1.72    1.07    1.00
  HS02004862HS02004870 CONDUIT   1186.92     0  01:40      1.96    1.28    1.00
  HS02004870HS02004876 CONDUIT   1286.83     0  01:40      2.03    0.85    1.00
  HS02004876HS02004881 CONDUIT   1301.20     0  01:40      2.46   13.84    1.00
  HS02004881HS02006253 CONDUIT   1281.88     0  01:41      2.78    0.25    1.00
  HS02004901HS02004770 CONDUIT    242.13     0  01:44      0.35    0.91    1.00
  WS02001211WS02001212 CONDUIT    303.38     0  01:45      0.54    0.23    0.71
  WS02001212WS02001213 CONDUIT    324.83     0  01:46      1.04    0.50    0.60
  WS02001213WS02003059 CONDUIT    286.58     0  01:44      0.47    0.47    0.91
  WS02003059WS02003060 CONDUIT    352.75     0  01:40      0.67    0.23    0.81
  WS02003060WS02003069 CONDUIT   1477.46     0  01:47      2.19    0.58    0.60
  WS02003066WSF200     CONDUIT   1257.52     0  01:41      3.60    0.21    0.39
  WS02003067WS02003066 CONDUIT   1261.52     0  01:41      2.00    0.40    0.58
  WS02003069WS02003072 CONDUIT   1469.57     0  01:48      1.88    0.71    0.65
  WS02003072WS02003073 CONDUIT   1472.67     0  01:47      2.04    3.18    0.61
  WS02004138WS02004139 CONDUIT    190.95     0  00:29      2.15    0.04    0.43
  WS02004139WS02001211 CONDUIT    346.36     0  01:43      0.54    0.44    0.62
  WS02004401WS02004402 CONDUIT   1282.89     0  01:39      1.63    1.54    1.00
  WS02004402WS02004403 CONDUIT   1282.14     0  01:39      1.63    1.84    1.00
  WS02004403WS02004404 CONDUIT   1280.80     0  01:39      1.63    0.93    1.00
  WS02004404WS02004405 CONDUIT   1280.47     0  01:39      1.63   12.55    1.00
  WS02004405WS02004406 CONDUIT   1282.41     0  01:39      1.63    2.53    1.00
  WS02004406WS02004407 CONDUIT   1282.83     0  01:39      2.05    0.57    0.92
  WS02004407WS02004409 CONDUIT   1301.95     0  01:38      2.20    0.46    0.92
  WS02004409WS02004410 CONDUIT   1263.84     0  01:38      1.70    1.63    1.00
  WS02004410WS02004411 CONDUIT   1250.21     0  01:39      1.65    1.71    1.00
  WS02004411WS02004412 CONDUIT   1248.86     0  01:41      1.60    1.77    1.00
  WS02004412WS02004413 CONDUIT   1248.30     0  01:41      1.59    0.84    1.00
  WS02004413WS02003067 CONDUIT   1248.40     0  01:42      1.95    0.53    0.76
  WS02006109WS02006110 CONDUIT   1207.05     0  01:37      2.40    2.32    1.00
  WS02006110WS02006113 CONDUIT   1205.66     0  01:37      2.40    1.10    1.00
  WS02006111WS02006112 CONDUIT   1133.39     0  01:39      2.25    0.54    1.00
  WS02006112WS02006115 CONDUIT   1284.11     0  01:39      1.63    0.76    1.00
  WS02006113WS02006111 CONDUIT   1198.07     0  01:37      2.69    1.44    1.00
  WS02006115WS02006116 CONDUIT   1283.77     0  01:39      1.63    1.65    1.00
  WS02006116WS02004401 CONDUIT   1283.29     0  01:39      1.63    1.77    1.00
  WS02006228WS02006109 CONDUIT   1207.13     0  01:37      2.40    5.27    1.00
  WS02006229WS02006228 CONDUIT   1208.30     0  01:37      2.40    4.00    1.00
  WS02006230WS02006229 CONDUIT    928.12     0  01:41      2.41   20.65    1.00
  WS02006231WS02006230 CONDUIT    453.29     0  01:41      1.42    6.88    1.00
  WS02006232WS02006231 CONDUIT    453.47     0  01:51      1.22    0.95    1.00
  WS02006234WS02006232 CONDUIT    453.11     0  01:51      1.41    0.92    1.00
  WS02006235WS02006234 CONDUIT    468.79     0  03:59      1.24    4.95    1.00
  WS02006238WS02006235 CONDUIT    417.28     0  03:28      1.45    0.93    1.00
  WS02006239WS02006238 CONDUIT    417.12     0  03:28      1.12    1.33    1.00
  WS02006240WS02006239 CONDUIT    417.07     0  03:28      1.26    1.31    1.00
  WS02006242WS02006240 CONDUIT    416.99     0  03:28      1.14    1.66    1.00
  WS02006243WS02006242 CONDUIT    416.96     0  03:28      1.34    0.89    1.00
  WS02006245WS02006243 CONDUIT    416.94     0  03:28      1.39    1.23    1.00
  WS02006247WS02006245 CONDUIT    416.90     0  03:28      1.37    3.31    1.00
  WS02006248WS02006247 CONDUIT    416.99     0  03:25      1.40    0.91    1.00
  WS02006249WS02006248 CONDUIT    417.62     0  03:17      1.38    2.29    1.00
  WS02006251WS02006249 CONDUIT   1327.94     0  01:41      3.45    3.83    1.00
  WS02006252WS02006251 CONDUIT    408.86     0  02:35      3.88    1.50    1.00
  WS02006253WS02006251 CONDUIT   1303.25     0  01:41      3.39    3.91    1.00
  WS02006256WS02006235 CONDUIT    288.93     0  00:00      4.23    3.06    1.00
  WS02006280WS02006229 CONDUIT   2123.22     0  01:42      4.85    0.45    1.00
  WS02006284WS02006280 CONDUIT   2120.81     0  01:42      3.19    0.89    1.00
  WS02006287WS02006284 CONDUIT   2119.29     0  01:42      2.97    0.98    1.00
  WSF200WS02003060     CONDUIT   1409.23     0  01:39      2.95    0.31    0.50
  YS02001580YS02001583 CONDUIT    151.48     0  01:38      0.88    0.59    1.00
  YS02001583YS02001586 CONDUIT    187.64     0  01:38      0.88    0.28    1.00
  YS02001586YS02001590 CONDUIT    304.23     0  01:43      1.33    0.53    1.00
  YS02001590YS02001593 CONDUIT    304.28     0  01:43      1.08    1.91    1.00
  YS02001593YS02001596 CONDUIT    304.31     0  01:43      1.67    0.48    1.00
  YS02001596YS02001600 CONDUIT    304.52     0  01:43      1.08    0.59    1.00
  YS02001600YS02001601 CONDUIT    304.43     0  01:43      1.08    0.52    1.00
  YS02001601YS02001602 CONDUIT    583.81     0  01:38      2.06    2.11    1.00
  YS02001602YS02001605 CONDUIT    584.21     0  01:38      2.07   12.36    1.00
  YS02001605YS02001607 CONDUIT    583.72     0  01:38      2.06    3.20    1.00
  YS02001607YS02001610 CONDUIT    563.75     0  01:38      0.76    0.54    1.00
  YS02001610YS02001613 CONDUIT    528.47     0  01:38      0.72    0.61    1.00
  YS02001613YS02001616 CONDUIT    481.76     0  01:39      0.70    0.41    1.00
  YS02001616YS02001619 CONDUIT    468.70     0  01:59      0.68    0.81    1.00
  YS02001619YS02001622 CONDUIT    935.48     0  01:39      1.37    1.38    1.00
  YS02001622YS02001625 CONDUIT    926.47     0  01:39      1.18    0.49    1.00
  YS02001625YS02001629 CONDUIT    928.19     0  01:39      1.19    0.44    1.00
  YS02001629YS02163301 CONDUIT    912.85     0  01:41      1.16    1.12    1.00
  YS02001633YS02163601 CONDUIT   1334.65     0  01:41      1.70    1.40    1.00
  YS02001641YS02001644 CONDUIT   1334.01     0  01:41      1.70    4.31    1.00
  YS02001644YS02001647 CONDUIT   1698.23     0  01:41      2.25    1.00    1.00
  YS02001647YS02001649 CONDUIT   1708.73     0  01:41      2.35    0.90    1.00
  YS02001649YS02001757 CONDUIT   2048.92     0  01:41      2.63    1.24    1.00
  YS02001652YS02001649 CONDUIT    439.57     0  01:41      0.91    0.22    1.00
  YS02001655YS02001652 CONDUIT    448.16     0  01:40      1.71    0.22    0.95
  YS02001658YS02001655 CONDUIT    411.37     0  01:47      2.04    0.17    0.69
  YS02001661YS02001658 CONDUIT    358.98     0  01:40      2.22    0.14    0.40
  YS02001664YS02001661 CONDUIT    359.38     0  01:40      2.04    0.11    0.28
  YS02001745YS02001748 CONDUIT    234.69     0  01:39      2.05    0.09    0.28
  YS02001748YS02001751 CONDUIT    269.21     0  01:48      1.72    0.14    0.56
  YS02001751YS02001754 CONDUIT    252.51     0  01:47      1.68    0.12    0.79
  YS02001754YS02001757 CONDUIT    232.51     0  01:40      0.66    0.09    0.99
  YS02001757CaochengTiaoxuchi CONDUIT   2607.35     0  01:43      3.43    1.13    1.00
  YS02001759YS02001757 CONDUIT    689.60     0  01:44      1.13    0.49    1.00
  YS02001762YS02001759 CONDUIT    409.25     0  01:44      0.56    0.47    1.00
  YS02001765YS02001762 CONDUIT    402.43     0  01:44      0.74    0.38    1.00
  YS02001767YS02001765 CONDUIT    415.73     0  01:43      0.91    0.52    1.00
  YS02001770YS02001767 CONDUIT    457.59     0  01:43      0.96    1.81    1.00
  YS02001774YS02001770 CONDUIT    124.01     0  01:40      0.22    0.08    1.00
  YS02001779YS02001774 CONDUIT     96.74     0  01:43      0.13    0.05    0.96
  YS02001783YS02001784 CONDUIT   1115.92     0  01:45      2.22    1.54    1.00
  YS02001784YS02001785 CONDUIT   1117.26     0  01:45      2.22    2.60    1.00
  YS02001786YS02001788 CONDUIT   1120.96     0  01:45      2.40    2.16    1.00
  YS02001788YS02001790 CONDUIT   1125.19     0  01:45      2.64    0.83    1.00
  YS02001790YS02001791 CONDUIT   1232.11     0  01:45      3.39    1.34    1.00
  YS02001791YS02001793 CONDUIT   1177.06     0  01:45      6.52    0.51    1.00
  YS02001793JiankangQianchi CONDUIT   1149.25     0  01:56      2.27    0.09    1.00
  YS02001882YS02001884 CONDUIT     45.76     0  01:40      0.14    0.05    1.00
  YS02001884YS02001887 CONDUIT     97.94     0  01:39      0.13    0.13    1.00
  YS02001887YS02001890 CONDUIT    375.93     0  01:40      0.48    0.64    1.00
  YS02001890YS02001895 CONDUIT    378.10     0  01:40      0.48    0.18    1.00
  YS02001895YS02001898 CONDUIT    368.15     0  01:41      0.47    0.64    1.00
  YS02001898YS02001901 CONDUIT    376.76     0  01:41      0.48    0.24    1.00
  YS02001901YS02001904 CONDUIT    377.85     0  01:41      0.48    0.59    1.00
  YS02001904YS02001907 CONDUIT    380.19     0  01:41      0.48    0.13    1.00
  YS02001907YS02006553 CONDUIT    773.34     0  01:47      0.86    0.91    1.00
  YS02001910YS02001907 CONDUIT    556.87     0  01:47      0.71    0.31    1.00
  YS02001915YS02001910 CONDUIT    556.11     0  01:47      0.71    0.28    1.00
  YS02001918YS02001915 CONDUIT    335.52     0  01:54      0.47    0.19    1.00
  YS02001920YS02001918 CONDUIT    278.67     0  01:53      0.71    0.27    1.00
  YS02001923YS02001920 CONDUIT    252.24     0  01:47      0.86    0.11    1.00
  YS02001926YS02001923 CONDUIT    260.50     0  01:47      0.96    0.37    0.78
  YS02001929YS02001926 CONDUIT    242.20     0  01:49      1.07    0.12    0.67
  YS02006553YS02006556 CONDUIT    775.86     0  01:47      0.99    0.66    1.00
  YS02006556YS02006558 CONDUIT    773.64     0  01:46      0.99    0.61    1.00
  YS02006558YS02006561 CONDUIT   1137.51     0  01:43      4.02    2.51    1.00
  YS02006561YS02001783 CONDUIT   1115.33     0  01:45      2.28    0.58    1.00
  YS02163301YS02001633 CONDUIT    912.87     0  01:41      1.16    0.86    1.00
  YS02163601YS02164001 CONDUIT   1334.86     0  01:41      1.70    1.18    1.00
  YS02164001YS02001641 CONDUIT   1333.75     0  01:40      1.70    1.82    1.00
  YSB1154YSB6556       CONDUIT    199.79     0  01:40      0.52    0.36    1.00
  YSB1171HS02004479    CONDUIT    388.40     0  01:38      0.77    0.26    1.00
  YSB1174YSB1171       CONDUIT    177.56     0  01:38      0.46    0.27    1.00
  YSB6556YSB1171       CONDUIT    203.51     0  01:39      0.53    0.21    1.00
  CC-R1                PUMP       683.00     0  00:00              1.00
  CC-R2                PUMP       683.00     0  00:00              1.00
  CC-S1                PUMP       200.00     0  00:00              1.00
  CC-S2                PUMP       200.00     0  00:00              1.00
  JK-R1                PUMP      1000.00     0  00:00              1.00
  JK-R2                PUMP      1000.00     0  00:00              1.00
  JK-S                 PUMP       300.00     0  00:00              1.00
  XR-1                 PUMP        95.00     0  00:00              1.00
  XR-2                 PUMP        95.00     0  00:00              1.00
  XR-3                 PUMP        95.00     0  00:00              1.00
  XR-4                 PUMP        95.00     0  00:00              1.00
  
  
  ***************************
  Flow Classification Summary
  ***************************
  
  -------------------------------------------------------------------------------------
                      Adjusted    ---------- Fraction of Time in Flow Class ---------- 
                       /Actual         Up    Down  Sub   Sup   Up    Down  Norm  Inlet 
  Conduit               Length    Dry  Dry   Dry   Crit  Crit  Crit  Crit  Ltd   Ctrl  
  -------------------------------------------------------------------------------------
  1                       1.00   0.00  0.00  0.00  0.00  1.00  0.00  0.00  0.42  0.00
  HS02004478WS02006287    1.00   0.08  0.00  0.00  0.69  0.23  0.00  0.00  0.61  0.00
  HS02004479HS02004480    1.00   0.02  0.00  0.00  0.98  0.00  0.00  0.00  0.11  0.00
  HS02004480HS02004478    1.00   0.06  0.00  0.00  0.63  0.00  0.00  0.31  0.00  0.00
  HS02004770HS02004777    1.00   0.00  0.06  0.00  0.94  0.00  0.00  0.00  0.03  0.00
  HS02004777HS02004785    1.00   0.00  0.00  0.00  1.00  0.00  0.00  0.00  0.12  0.00
  HS02004785HS02004788    1.00   0.00  0.00  0.00  1.00  0.00  0.00  0.00  0.00  0.00
  HS02004788HS02004792    1.00   0.00  0.00  0.00  1.00  0.00  0.00  0.00  0.93  0.00
  HS02004792HS02004799    1.00   0.00  0.00  0.00  0.99  0.01  0.00  0.00  0.89  0.00
  HS02004799HS02004480    1.00   0.00  0.02  0.00  0.92  0.00  0.06  0.00  0.00  0.00
  HS02004802HS02004478    1.00   0.06  0.00  0.00  0.93  0.00  0.00  0.00  0.03  0.00
  HS02004807HS02004802    1.00   0.06  0.00  0.00  0.93  0.00  0.00  0.01  0.00  0.00
  HS02004817HS02004807    1.00   0.00  0.06  0.00  0.94  0.00  0.00  0.00  0.01  0.00
  HS02004817HS02004824    1.00   0.00  0.00  0.00  1.00  0.00  0.00  0.00  0.86  0.00
  HS02004824HS02004830    1.00   0.00  0.00  0.00  1.00  0.00  0.00  0.00  0.00  0.00
  HS02004830HS02004837    1.00   0.00  0.00  0.00  1.00  0.00  0.00  0.00  0.91  0.00
  HS02004837HS02004842    1.00   0.00  0.00  0.00  1.00  0.00  0.00  0.00  0.11  0.00
  HS02004842HS02004848    1.00   0.00  0.06  0.00  0.94  0.00  0.00  0.00  0.60  0.00
  HS02004848HS02004852    1.00   0.06  0.00  0.00  0.94  0.00  0.00  0.00  0.74  0.00
  HS02004852HS02004856    1.00   0.06  0.01  0.00  0.93  0.00  0.00  0.00  0.72  0.00
  HS02004856HS02004862    1.00   0.00  0.08  0.00  0.92  0.00  0.00  0.00  0.77  0.00
  HS02004862HS02004870    1.00   0.00  0.00  0.00  1.00  0.00  0.00  0.00  0.03  0.00
  HS02004870HS02004876    1.00   0.00  0.00  0.00  0.99  0.01  0.00  0.00  0.89  0.00
  HS02004876HS02004881    1.00   0.01  0.00  0.00  0.81  0.18  0.00  0.00  0.00  0.00
  HS02004881HS02006253    1.00   0.02  0.01  0.00  0.69  0.02  0.00  0.26  0.40  0.00
  HS02004901HS02004770    1.00   0.06  0.00  0.00  0.94  0.00  0.00  0.00  0.00  0.00
  WS02001211WS02001212    1.00   0.00  0.01  0.00  0.99  0.00  0.00  0.00  0.00  0.00
  WS02001212WS02001213    1.00   0.01  0.00  0.00  0.57  0.00  0.42  0.00  0.00  0.00
  WS02001213WS02003059    1.00   0.00  0.00  0.00  1.00  0.00  0.00  0.00  0.00  0.00
  WS02003059WS02003060    1.00   0.00  0.00  0.00  1.00  0.00  0.00  0.00  0.03  0.00
  WS02003060WS02003069    1.00   0.00  0.00  0.00  0.99  0.01  0.00  0.00  0.40  0.00
  WS02003066WSF200        1.00   0.06  0.00  0.00  0.00  0.94  0.00  0.00  0.63  0.00
  WS02003067WS02003066    1.00   0.05  0.01  0.00  0.94  0.00  0.00  0.00  0.00  0.00
  WS02003069WS02003072    1.00   0.00  0.00  0.00  1.00  0.00  0.00  0.00  0.50  0.00
  WS02003072WS02003073    1.00   0.00  0.00  0.00  0.00  0.00  0.00  1.00  0.00  0.00
  WS02004138WS02004139    1.00   0.00  0.00  0.00  0.98  0.00  0.00  0.01  0.98  0.00
  WS02004139WS02001211    1.00   0.00  0.00  0.00  1.00  0.00  0.00  0.00  0.00  0.00
  WS02004401WS02004402    1.00   0.01  0.00  0.00  0.98  0.00  0.00  0.00  0.00  0.00
  WS02004402WS02004403    1.00   0.02  0.00  0.00  0.98  0.00  0.00  0.00  0.00  0.00
  WS02004403WS02004404    1.00   0.00  0.02  0.00  0.98  0.00  0.00  0.00  0.00  0.00
  WS02004404WS02004405    1.00   0.00  0.00  0.00  1.00  0.00  0.00  0.00  0.00  0.00
  WS02004405WS02004406    1.00   0.00  0.00  0.00  1.00  0.00  0.00  0.00  0.00  0.00
  WS02004406WS02004407    1.00   0.00  0.03  0.00  0.97  0.00  0.00  0.00  0.00  0.00
  WS02004407WS02004409    1.00   0.03  0.00  0.00  0.97  0.00  0.00  0.00  0.86  0.00
  WS02004409WS02004410    1.00   0.03  0.00  0.00  0.97  0.00  0.00  0.00  0.02  0.00
  WS02004410WS02004411    1.00   0.03  0.00  0.00  0.97  0.00  0.00  0.00  0.01  0.00
  WS02004411WS02004412    1.00   0.03  0.00  0.00  0.97  0.00  0.00  0.00  0.00  0.00
  WS02004412WS02004413    1.00   0.03  0.00  0.00  0.97  0.00  0.00  0.00  0.01  0.00
  WS02004413WS02003067    1.00   0.03  0.02  0.00  0.00  0.00  0.95  0.00  0.00  0.00
  WS02006109WS02006110    1.00   0.00  0.00  0.00  0.99  0.00  0.01  0.00  0.00  0.00
  WS02006110WS02006113    1.00   0.00  0.01  0.00  0.99  0.00  0.00  0.00  0.00  0.00
  WS02006111WS02006112    1.00   0.01  0.00  0.00  0.99  0.00  0.00  0.00  0.79  0.00
  WS02006112WS02006115    1.00   0.01  0.00  0.00  0.98  0.00  0.00  0.00  0.00  0.00
  WS02006113WS02006111    1.00   0.01  0.00  0.00  0.15  0.84  0.00  0.00  0.12  0.00
  WS02006115WS02006116    1.00   0.01  0.00  0.00  0.98  0.00  0.00  0.00  0.00  0.00
  WS02006116WS02004401    1.00   0.01  0.00  0.00  0.99  0.00  0.00  0.00  0.00  0.00
  WS02006228WS02006109    1.00   0.00  0.00  0.00  1.00  0.00  0.00  0.00  0.01  0.00
[...]
  WS02006251WS02006249    1.00   0.00  0.00  0.00  1.00  0.00  0.00  0.00  0.46  0.00
  WS02006252WS02006251    1.00   0.00  0.01  0.00  0.15  0.00  0.84  0.00  0.00  0.00
  WS02006253WS02006251    1.00   0.00  0.00  0.00  1.00  0.00  0.00  0.00  0.01  0.00
  WS02006256WS02006235    1.00   0.00  0.00  0.00  1.00  0.00  0.00  0.00  0.00  0.00
  WS02006280WS02006229    1.00   0.07  0.00  0.00  0.11  0.03  0.00  0.79  0.01  0.00
  WS02006284WS02006280    1.00   0.07  0.00  0.00  0.07  0.01  0.00  0.86  0.00  0.00
  WS02006287WS02006284    1.00   0.05  0.03  0.00  0.56  0.35  0.00  0.00  0.66  0.00
  WSF200WS02003060        1.00   0.00  0.06  0.00  0.60  0.35  0.00  0.00  0.49  0.00
  YS02001580YS02001583    1.00   0.11  0.73  0.00  0.15  0.00  0.00  0.00  0.74  0.00
  YS02001583YS02001586    1.00   0.32  0.42  0.00  0.26  0.00  0.00  0.00  0.74  0.00
  YS02001586YS02001590    1.00   0.06  0.00  0.00  0.47  0.05  0.00  0.43  0.32  0.00
  YS02001590YS02001593    1.00   0.06  0.00  0.00  0.08  0.00  0.86  0.00  0.00  0.00
  YS02001593YS02001596    1.00   0.06  0.00  0.00  0.10  0.01  0.00  0.83  0.02  0.00
  YS02001596YS02001600    1.00   0.06  0.00  0.00  0.19  0.04  0.00  0.70  0.09  0.00
  YS02001600YS02001601    1.00   0.06  0.01  0.00  0.93  0.00  0.00  0.00  0.63  0.00
  YS02001601YS02001602    1.00   0.06  0.01  0.00  0.94  0.00  0.00  0.00  0.00  0.00
  YS02001602YS02001605    1.00   0.06  0.00  0.00  0.93  0.00  0.00  0.00  0.00  0.00
  YS02001605YS02001607    1.00   0.07  0.00  0.00  0.93  0.00  0.00  0.00  0.00  0.00
  YS02001607YS02001610    1.00   0.06  0.00  0.00  0.93  0.00  0.00  0.00  0.02  0.00
  YS02001610YS02001613    1.00   0.06  0.00  0.00  0.94  0.00  0.00  0.00  0.01  0.00
  YS02001613YS02001616    1.00   0.06  0.00  0.00  0.94  0.00  0.00  0.00  0.00  0.00
  YS02001616YS02001619    1.00   0.06  0.00  0.00  0.94  0.00  0.00  0.00  0.00  0.00
  YS02001619YS02001622    1.00   0.06  0.00  0.00  0.94  0.00  0.00  0.00  0.37  0.00
  YS02001622YS02001625    1.00   0.06  0.00  0.00  0.94  0.00  0.00  0.00  0.05  0.00
  YS02001625YS02001629    1.00   0.06  0.03  0.00  0.22  0.00  0.69  0.00  0.00  0.00
  YS02001629YS02163301    1.00   0.08  0.01  0.00  0.92  0.00  0.00  0.00  0.00  0.00
  YS02001633YS02163601    1.00   0.00  0.00  0.00  1.00  0.00  0.00  0.00  0.15  0.00
  YS02001641YS02001644    1.00   0.00  0.00  0.00  1.00  0.00  0.00  0.00  0.00  0.00
  YS02001644YS02001647    1.00   0.00  0.09  0.00  0.91  0.00  0.00  0.00  0.00  0.00
  YS02001647YS02001649    1.00   0.00  0.09  0.00  0.90  0.02  0.00  0.00  0.57  0.00
  YS02001649YS02001757    1.00   0.00  0.00  0.00  1.00  0.00  0.00  0.00  0.52  0.00
  YS02001652YS02001649    1.00   0.00  0.00  0.00  0.98  0.02  0.00  0.00  0.65  0.00
  YS02001655YS02001652    1.00   0.00  0.00  0.00  0.37  0.02  0.00  0.61  0.06  0.00
  YS02001658YS02001655    1.00   0.00  0.07  0.00  0.78  0.15  0.00  0.00  0.64  0.00
  YS02001661YS02001658    1.00   0.07  0.00  0.00  0.56  0.37  0.00  0.00  0.79  0.00
  YS02001664YS02001661    1.00   0.06  0.00  0.00  0.82  0.12  0.00  0.00  0.87  0.00
  YS02001745YS02001748    1.00   0.00  0.00  0.00  0.17  0.02  0.00  0.82  0.16  0.00
  YS02001748YS02001751    1.00   0.00  0.00  0.00  0.94  0.06  0.00  0.00  0.74  0.00
  YS02001751YS02001754    1.00   0.00  0.00  0.00  0.32  0.02  0.00  0.67  0.04  0.00
  YS02001754YS02001757    1.00   0.00  0.00  0.00  1.00  0.00  0.00  0.00  0.71  0.00
  YS02001757CaochengTiaoxuchi    1.00   0.00  0.00  0.00  0.99  0.01  0.00  0.00  0.51  0.00
  YS02001759YS02001757    1.00   0.00  0.00  0.00  1.00  0.00  0.00  0.00  0.44  0.00
  YS02001762YS02001759    1.00   0.00  0.00  0.00  1.00  0.00  0.00  0.00  0.06  0.00
  YS02001765YS02001762    1.00   0.00  0.00  0.00  1.00  0.00  0.00  0.00  0.59  0.00
  YS02001767YS02001765    1.00   0.00  0.00  0.00  1.00  0.00  0.00  0.00  0.02  0.00
  YS02001770YS02001767    1.00   0.00  0.00  0.00  1.00  0.00  0.00  0.00  0.00  0.00
  YS02001774YS02001770    1.00   0.00  0.06  0.00  0.82  0.00  0.12  0.00  0.03  0.00
  YS02001779YS02001774    1.00   0.00  0.00  0.00  1.00  0.00  0.00  0.00  0.72  0.00
  YS02001783YS02001784    1.00   0.00  0.09  0.00  0.91  0.00  0.00  0.00  0.58  0.00
  YS02001784YS02001785    1.00   0.00  0.00  0.00  1.00  0.00  0.00  0.00  0.17  0.00
  YS02001786YS02001788    1.00   0.00  0.00  0.00  0.74  0.26  0.00  0.00  0.00  0.00
  YS02001788YS02001790    1.00   0.00  0.00  0.00  0.12  0.88  0.00  0.00  0.87  0.00
  YS02001790YS02001791    1.00   0.00  0.00  0.00  0.02  0.98  0.00  0.00  0.17  0.00
  YS02001791YS02001793    1.00   0.00  0.00  0.00  0.02  0.98  0.00  0.00  0.00  0.00
  YS02001793JiankangQianchi    1.00   0.00  0.00  0.00  1.00  0.00  0.00  0.00  0.96  0.00
  YS02001882YS02001884    1.00   0.08  0.01  0.00  0.92  0.00  0.00  0.00  0.00  0.00
  YS02001884YS02001887    1.00   0.03  0.02  0.00  0.95  0.00  0.00  0.00  0.00  0.00
  YS02001887YS02001890    1.00   0.00  0.00  0.00  0.98  0.00  0.02  0.00  0.00  0.00
  YS02001890YS02001895    1.00   0.00  0.08  0.00  0.92  0.00  0.00  0.00  0.00  0.00
  YS02001895YS02001898    1.00   0.08  0.00  0.00  0.91  0.00  0.01  0.00  0.00  0.00
  YS02001898YS02001901    1.00   0.08  0.00  0.00  0.92  0.00  0.00  0.00  0.01  0.00
  YS02001901YS02001904    1.00   0.08  0.00  0.00  0.92  0.00  0.00  0.00  0.00  0.00
  YS02001904YS02001907    1.00   0.00  0.08  0.00  0.92  0.00  0.00  0.00  0.00  0.00
  YS02001907YS02006553    1.00   0.00  0.01  0.00  0.99  0.00  0.00  0.00  0.00  0.00
  YS02001910YS02001907    1.00   0.00  0.00  0.00  0.98  0.00  0.00  0.02  0.12  0.00
  YS02001915YS02001910    1.00   0.00  0.00  0.00  0.98  0.02  0.00  0.00  0.16  0.00
  YS02001918YS02001915    1.00   0.00  0.00  0.00  0.99  0.01  0.00  0.00  0.79  0.00
  YS02001920YS02001918    1.00   0.00  0.00  0.00  1.00  0.00  0.00  0.00  0.00  0.00
  YS02001923YS02001920    1.00   0.00  0.00  0.00  1.00  0.00  0.00  0.00  0.96  0.00
  YS02001926YS02001923    1.00   0.00  0.04  0.00  0.03  0.00  0.94  0.00  0.00  0.00
  YS02001929YS02001926    1.00   0.00  0.06  0.00  0.94  0.00  0.00  0.00  0.85  0.00
  YS02006553YS02006556    1.00   0.01  0.00  0.00  0.99  0.00  0.00  0.00  0.03  0.00
  YS02006556YS02006558    1.00   0.00  0.00  0.00  1.00  0.00  0.00  0.00  0.00  0.00
  YS02006558YS02006561    1.00   0.09  0.00  0.00  0.02  0.89  0.00  0.00  0.19  0.00
  YS02006561YS02001783    1.00   0.09  0.00  0.00  0.05  0.86  0.00  0.00  0.73  0.00
  YS02163301YS02001633    1.00   0.00  0.08  0.00  0.92  0.00  0.00  0.00  0.00  0.00
  YS02163601YS02164001    1.00   0.00  0.04  0.00  0.96  0.00  0.00  0.00  0.00  0.00
  YS02164001YS02001641    1.00   0.00  0.04  0.00  0.96  0.00  0.00  0.00  0.06  0.00
  YSB1154YSB6556          1.00   0.06  0.00  0.00  0.94  0.00  0.00  0.00  0.02  0.00
  YSB1171HS02004479       1.00   0.02  0.00  0.00  0.97  0.00  0.00  0.01  0.10  0.00
  YSB1174YSB1171          1.00   0.03  0.02  0.00  0.96  0.00  0.00  0.00  0.00  0.00
  YSB6556YSB1171          1.00   0.02  0.03  0.00  0.94  0.00  0.00  0.00  0.00  0.00
  
  
  *************************
  Conduit Surcharge Summary
  *************************
  
  ----------------------------------------------------------------------------
                                                           Hours        Hours 
                         --------- Hours Full --------   Above Full   Capacity
  Conduit                Both Ends  Upstream  Dnstream   Normal Flow   Limited
  ----------------------------------------------------------------------------
  HS02004478WS02006287        0.23      0.23      0.39      0.01         0.01
  HS02004479HS02004480        0.41      0.41      0.42      0.01         0.01
  HS02004480HS02004478        0.33      0.40      0.33      1.54         0.33
  HS02004770HS02004777        0.32      0.32      0.33      0.13         0.10
  HS02004777HS02004785        0.27      0.27      0.33      0.01         0.01
  HS02004785HS02004788        0.26      0.27      0.26      1.11         0.25
  HS02004788HS02004792        0.26      0.26      0.38      0.01         0.01
  HS02004792HS02004799        0.38      0.38      0.47      0.01         0.02
  HS02004799HS02004480        0.40      0.40      0.47      0.57         0.01
  HS02004802HS02004478        0.33      0.33      0.41      0.01         0.01
  HS02004807HS02004802        0.38      0.38      0.40      0.01         0.01
  HS02004817HS02004807        0.38      0.38      0.90      0.01         0.01
  HS02004817HS02004824        0.25      0.25      0.90      0.01         0.01
  HS02004824HS02004830        0.21      0.21      0.25      0.01         0.01
  HS02004830HS02004837        0.17      0.17      0.21      0.01         0.01
  HS02004837HS02004842        0.17      0.17      0.31      0.01         0.01
  HS02004842HS02004848        0.09      0.09      0.31      0.01         0.01
  HS02004848HS02004852        0.09      0.09      0.13      0.03         0.01
  HS02004852HS02004856        0.13      0.13      0.15      0.03         0.01
  HS02004856HS02004862        0.09      0.09      0.16      0.02         0.01
  HS02004862HS02004870        0.16      0.16      0.17      0.02         0.01
  HS02004870HS02004876        0.17      0.17      0.23      0.01         0.01
  HS02004876HS02004881        0.20      0.23      0.20      1.12         0.19
  HS02004881HS02006253        0.20      0.20      1.22      0.01         0.01
  HS02004901HS02004770        0.32      0.32      0.33      0.01         0.01
  WS02003072WS02003073        0.01      0.01      0.01      3.18         0.01
  WS02004401WS02004402        1.25      1.25      1.27      1.13         1.10
  WS02004402WS02004403        1.27      1.27      1.28      1.26         1.25
  WS02004403WS02004404        1.28      1.28      1.57      0.01         0.01
  WS02004404WS02004405        1.55      1.57      1.55      4.38         1.54
  WS02004405WS02004406        1.50      1.55      1.50      1.75         1.50
  WS02004406WS02004407        0.01      0.01      1.50      0.01         0.01
  WS02004407WS02004409        0.01      0.01      0.61      0.01         0.01
  WS02004409WS02004410        0.57      0.61      0.57      1.17         0.57
  WS02004410WS02004411        0.53      0.57      0.53      1.23         0.53
  WS02004411WS02004412        0.46      0.53      0.46      1.25         0.46
  WS02004412WS02004413        0.46      0.46      1.04      0.01         0.01
  WS02004413WS02003067        0.01      0.01      1.04      0.01         0.01
  WS02006109WS02006110        1.68      1.68      2.13      1.68         0.01
  WS02006110WS02006113        0.99      0.99      2.10      0.23         0.01
  WS02006111WS02006112        0.96      0.96      2.68      0.01         0.01
  WS02006112WS02006115        1.17      1.17      1.81      0.01         0.01
  WS02006113WS02006111        0.97      0.99      0.98      1.11         0.97
  WS02006115WS02006116        1.18      1.18      1.19      1.18         1.15
  WS02006116WS02004401        1.24      1.24      1.25      1.25         1.22
  WS02006228WS02006109        2.07      2.15      2.07      3.13         2.07
  WS02006229WS02006228        2.07      2.10      2.07      2.52         2.06
  WS02006230WS02006229        2.25      2.40      2.26      4.53         1.52
  WS02006231WS02006230        1.49      1.49      1.66      4.33         0.67
  WS02006232WS02006231        1.63      1.63      1.88      0.01         0.10
  WS02006234WS02006232        1.73      1.73      1.88      0.01         0.02
  WS02006235WS02006234        1.69      1.70      1.73      3.92         0.63
  WS02006238WS02006235        1.75      1.75      1.81      0.01         0.21
  WS02006239WS02006238        1.76      1.78      1.77      0.94         0.28
  WS02006240WS02006239        1.66      1.68      1.69      0.92         0.24
  WS02006242WS02006240        1.65      1.65      1.83      1.47         0.56
  WS02006243WS02006242        1.59      1.59      1.73      0.01         0.01
  WS02006245WS02006243        1.48      1.48      1.56      0.41         0.21
  WS02006247WS02006245        1.46      1.50      1.46      3.27         0.65
  WS02006248WS02006247        1.40      1.40      1.48      0.01         0.01
  WS02006249WS02006248        1.37      1.37      1.40      2.27         0.01
  WS02006251WS02006249        1.38      1.38      1.40      1.35         1.05
  WS02006252WS02006251        1.69      1.69      1.71      0.84         0.01
  WS02006253WS02006251        1.37      1.37      1.41      0.50         0.03
  WS02006256WS02006235        4.17      4.19      7.80      0.47         0.01
  WS02006280WS02006229        0.48      0.48      0.57      0.01         0.01
  WS02006284WS02006280        0.41      0.41      0.47      0.01         0.01
  WS02006287WS02006284        0.32      0.32      0.42      0.01         0.01
  YS02001580YS02001583        0.24      0.24      0.29      0.01         0.01
  YS02001583YS02001586        0.24      0.24      0.42      0.01         0.01
  YS02001586YS02001590        0.43      0.43      0.50      0.01         0.01
  YS02001590YS02001593        0.50      0.50      0.51      0.52         0.01
  YS02001593YS02001596        0.50      0.50      0.59      0.01         0.01
  YS02001596YS02001600        0.63      0.63      0.72      0.01         0.01
  YS02001600YS02001601        0.78      0.78      1.17      0.01         0.01
  YS02001601YS02001602        1.06      1.06      1.24      0.69         0.01
  YS02001602YS02001605        0.99      0.99      1.06      1.90         0.01
  YS02001605YS02001607        0.97      0.99      1.02      0.95         0.91
  YS02001607YS02001610        0.48      0.48      0.52      0.01         0.01
  YS02001610YS02001613        0.48      0.48      0.52      0.01         0.01
  YS02001613YS02001616        0.44      0.44      0.48      0.01         0.01
  YS02001616YS02001619        0.43      0.43      0.44      0.01         0.01
  YS02001619YS02001622        0.43      0.43      0.43      0.47         0.40
  YS02001622YS02001625        0.43      0.43      0.62      0.01         0.01
  YS02001625YS02001629        0.37      0.37      0.62      0.01         0.01
  YS02001629YS02163301        0.63      0.63      0.65      0.25         0.20
  YS02001633YS02163601        0.67      0.67      0.72      0.37         0.37
  YS02001641YS02001644        0.62      0.64      0.62      1.17         0.62
  YS02001644YS02001647        0.32      0.32      0.62      0.01         0.01
  YS02001647YS02001649        0.32      0.32      0.56      0.01         0.01
  YS02001649YS02001757        0.55      0.56      1.18      0.17         0.13
  YS02001652YS02001649        0.15      0.15      0.56      0.01         0.01
  YS02001655YS02001652        0.01      0.01      0.09      0.01         0.01
  YS02001754YS02001757        0.01      0.01      1.18      0.01         0.01
  YS02001757CaochengTiaoxuchi        1.14      1.18      2.73      0.16         0.09
  YS02001759YS02001757        0.53      0.53      1.18      0.01         0.01
  YS02001762YS02001759        0.47      0.47      0.53      0.01         0.01
  YS02001765YS02001762        0.34      0.34      0.47      0.01         0.01
  YS02001767YS02001765        0.17      0.17      0.34      0.01         0.01
  YS02001770YS02001767        0.16      0.18      0.17      0.27         0.09
  YS02001774YS02001770        0.09      0.09      0.43      0.01         0.01
  YS02001779YS02001774        0.01      0.01      0.43      0.01         0.01
  YS02001783YS02001784        0.27      0.29      0.27      0.39         0.27
  YS02001784YS02001785        0.20      0.27      0.20      0.56         0.20
  YS02001786YS02001788        0.09      0.20      0.09      0.46         0.09
  YS02001788YS02001790        0.09      0.09      0.14      0.01         0.01
  YS02001790YS02001791        0.13      0.14      0.13      0.23         0.10
  YS02001791YS02001793        0.13      0.13      0.18      0.01         0.01
  YS02001793JiankangQianchi        0.16      0.16      7.69      0.01         0.01
  YS02001882YS02001884        0.24      0.24      0.25      0.01         0.01
  YS02001884YS02001887        0.27      0.27      0.28      0.01         0.01
  YS02001887YS02001890        0.29      0.29      0.30      0.01         0.01
  YS02001890YS02001895        0.23      0.23      0.31      0.01         0.01
  YS02001895YS02001898        0.22      0.22      0.23      0.01         0.01
  YS02001898YS02001901        0.23      0.23      0.27      0.01         0.01
  YS02001901YS02001904        0.26      0.26      0.27      0.01         0.01
  YS02001904YS02001907        0.26      0.26      0.45      0.01         0.01
  YS02001907YS02006553        0.56      0.56      0.61      0.01         0.01
  YS02001910YS02001907        0.31      0.31      0.44      0.01         0.01
  YS02001915YS02001910        0.24      0.24      0.31      0.01         0.01
  YS02001918YS02001915        0.13      0.13      0.24      0.01         0.01
  YS02001920YS02001918        0.13      0.13      0.15      0.01         0.01
  YS02001923YS02001920        0.01      0.01      0.15      0.01         0.01
  YS02006553YS02006556        0.37      0.37      0.45      0.01         0.01
  YS02006556YS02006558        0.41      0.41      0.46      0.01         0.01
  YS02006558YS02006561        0.20      0.37      0.20      0.52         0.20
  YS02006561YS02001783        0.08      0.08      0.29      0.01         0.01
  YS02163301YS02001633        0.65      0.65      0.69      0.01         0.01
  YS02163601YS02164001        0.63      0.63      0.72      0.19         0.01
  YS02164001YS02001641        0.63      0.63      0.64      0.55         0.53
  YSB1154YSB6556              0.45      0.45      0.58      0.01         0.01
  YSB1171HS02004479           0.36      0.36      0.59      0.01         0.01
  YSB1174YSB1171              0.50      0.50      0.82      0.01         0.01
  YSB6556YSB1171              0.45      0.45      0.97      0.01         0.01
  
  
  ***************
  Pumping Summary
  ***************
  
  ---------------------------------------------------------------------------------------------------------
                                                  Min       Avg       Max     Total     Power    % Time Off
                        Percent   Number of      Flow      Flow      Flow    Volume     Usage    Pump Curve
  Pump                 Utilized   Start-Ups       LPS       LPS       LPS  10^6 ltr     Kw-hr    Low   High
  ---------------------------------------------------------------------------------------------------------
  CC-R1                   57.77          17      0.00    216.30    683.00     2.234     42.20    0.0   51.3
  CC-R2                   65.09          16      0.00    137.75    683.00     2.052     39.19    0.0   56.7
  CC-S1                   68.78          12      0.00    115.73    200.00     1.764     10.11    0.0    0.0
  CC-S2                   70.83          13      0.00     64.04    200.00     1.169      6.15    0.0    0.0
  JK-R1                   41.14          20      0.00     58.15   1000.00     0.860     12.41    0.0    0.0
  JK-R2                   45.43          22      0.00     68.85   1000.00     0.906      9.81    0.0    0.0
  JK-S                    63.33          36      0.00     47.04    300.00     0.820     10.50    0.0    0.0
  XR-1                    97.91           2      0.00     95.00     95.00     2.679      9.60    0.0    0.0
  XR-2                    93.94           2      0.00     95.00     95.00     2.570      8.76    0.0    0.0
  XR-3                     0.00           1      0.00     95.00     95.00     0.000      0.00    0.0    0.0
  XR-4                     0.00           1      0.00     95.00     95.00     0.000      0.00    0.0    0.0
  

  Analysis begun on:  Mon Jul  3 13:24:39 2023
  Analysis ended on:  Mon Jul  3 13:24:57 2023
  Total elapsed time: 00:00:18