
  OWA STORM WATER MANAGEMENT MODEL - VERSION v5.1.14 (OWA 2022-07-31)
  --------------------------------------------------------------

  WARNING 04: minimum elevation drop used for Conduit WS02004404WS02004405
  WARNING 03: negative offset ignored for Link YS02001904YS02001907
  
  *********************************************************
  NOTE: The summary statistics displayed in this report are
  based on results found at every computational time step,  
  not just on results from each reporting time step.
  *********************************************************
  
  ****************
  Analysis Options
  ****************
  Flow Units ............... LPS
  Process Models:
    Rainfall/Runoff ........ YES
    RDII ................... NO
    Snowmelt ............... NO
    Groundwater ............ NO
    Flow Routing ........... YES
    Ponding Allowed ........ NO
    Water Quality .......... NO
  Infiltration Method ...... HORTON
  Flow Routing Method ...... DYNWAVE
  Surcharge Method ......... EXTRAN
  Starting Date ............ 08/28/2015 08:00:00
  Ending Date .............. 08/28/2015 16:00:00
  Antecedent Dry Days ...... 8.0
  Report Time Step ......... 00:01:00
  Wet Time Step ............ 00:01:00
  Dry Time Step ............ 00:01:00
  Routing Time Step ........ 30.00 sec
  Variable Time Step ....... YES
  Maximum Trials ........... 8
  Number of Threads ........ 1
  Head Tolerance ........... 0.001500 m
  
  
  **************************        Volume         Depth
  Runoff Quantity Continuity     hectare-m            mm
  **************************     ---------       -------
  Initial LID Storage ......         0.072         1.184
  Total Precipitation ......        18.043       297.853
  Evaporation Loss .........         0.000         0.000
  Infiltration Loss ........         0.225         3.718
  Surface Runoff ...........        16.351       269.924
  Final Storage ............         1.543        25.473
  Continuity Error (%) .....        -0.026
  
  
  **************************        Volume        Volume
  Flow Routing Continuity        hectare-m      10^6 ltr
  **************************     ---------     ---------
  Dry Weather Inflow .......         0.630         6.296
  Wet Weather Inflow .......        16.351       163.511
  Groundwater Inflow .......         0.000         0.000
  RDII Inflow ..............         0.000         0.000
  External Inflow ..........         0.105         1.045
  External Outflow .........         3.735        37.347
  Flooding Loss ............        13.342       133.425
  Evaporation Loss .........         0.000         0.000
  Exfiltration Loss ........         0.000         0.000
  Initial Stored Volume ....         0.303         3.031
  Final Stored Volume ......         0.319         3.187
  Continuity Error (%) .....        -0.044
  
  
  *************************
  Highest Continuity Errors
  *************************
  Node YS02001884 (4.78%)
  Node YS02001583 (-4.06%)
  
  
  ***************************
  Time-Step Critical Elements
  ***************************
  Link WS02006280WS02006229 (48.57%)
  Link YS02001791YS02001793 (23.98%)
  Link WS02006238WS02006235 (6.09%)
  Link WS02004404WS02004405 (4.81%)
  Link WS02006252WS02006251 (2.15%)
  
  
  ********************************
  Highest Flow Instability Indexes
  ********************************
  Link WS02006238WS02006235 (42)
  Link WS02004404WS02004405 (41)
  Link WS02006256WS02006235 (41)
  Link WS02006229WS02006228 (41)
  Link WS02006280WS02006229 (37)
  
  
  *************************
  Routing Time Step Summary
  *************************
  Minimum Time Step           :     0.00 sec
  Average Time Step           :     2.67 sec
  Maximum Time Step           :     6.46 sec
  Percent in Steady State     :     0.00
  Average Iterations per Step :     4.48
  Percent Not Converging      :    22.08
  
  
  ***************************
  Subcatchment Runoff Summary
  ***************************
  
  ------------------------------------------------------------------------------------------------------------------------------
                            Total      Total      Total      Total     Imperv       Perv      Total       Total     Peak  Runoff
                           Precip      Runon       Evap      Infil     Runoff     Runoff     Runoff      Runoff   Runoff   Coeff
  Subcatchment                 mm         mm         mm         mm         mm         mm         mm    10^6 ltr      LPS
  ------------------------------------------------------------------------------------------------------------------------------
  sub0                     275.15       0.00       0.00       1.06     254.72      18.21     272.93        0.22   166.61   0.992
  sub1                     275.15       0.00       0.00       1.64     218.42      25.49     258.44        1.72  1274.04   0.939
  sub10                    275.15       0.00       0.00       1.04     204.65      16.85     247.79        2.73  2137.86   0.901
  sub11                    275.15       0.00       0.00       0.94     190.16      15.68     240.19        2.79  2315.54   0.873
  sub12                    275.15       0.00       0.00       1.66     193.30      27.37     247.11        2.16  1779.76   0.898
  sub14                    275.15       0.00       0.00       1.03     180.10      16.87     235.81        2.24  1886.35   0.857
  sub15                    275.15       0.00       0.00       4.80     161.93      64.95     248.62        4.28  3193.88   0.904
  sub16                    275.15       0.00       0.00       5.06     157.91      73.10     250.54        2.62  2003.04   0.911
  sub17                    275.15       0.00       0.00       5.43     174.29      76.99     260.26        2.23  1631.01   0.946
  sub2                     275.15       0.00       0.00       7.69     159.71      86.59     256.67        2.39  1556.05   0.933
  sub22                    275.15       0.00       0.00       8.56     151.15     106.02     261.61       16.53 11052.79   0.951
  sub23                    275.15       0.00       0.00       6.40     155.64      85.46     254.81       12.15  8778.18   0.926
  sub3                     275.15       0.00       0.00       8.33     158.27      85.12     254.90        5.74  3544.30   0.926
  sub4                     275.15       0.00       0.00       1.82     215.51      24.97     256.60        5.35  3599.57   0.933
  sub5                     275.15       0.00       0.00       0.93     211.28      15.06     250.20        2.83  2184.17   0.909
  sub60                    316.61       0.00       0.00       1.48     214.16      27.85     281.92        3.70  3027.67   0.890
  sub61                    316.61       0.00       0.00       2.29     213.97      41.72     287.61        5.28  4184.14   0.908
  sub62                    316.61       0.00       0.00       1.01     228.17      18.92     284.41        7.79  6010.19   0.898
  sub63                    316.61       0.00       0.00       4.23     183.27      70.95     285.95        6.49  4883.72   0.903
  sub64                    316.61       0.00       0.00       2.02     208.77      34.98     282.39        6.78  5046.49   0.892
  sub65                    316.61       0.00       0.00       1.86     225.38      31.97     288.53        7.94  5649.23   0.911
  sub66                    316.61       0.00       0.00       4.96     177.45      67.85     281.51       13.13  8288.93   0.889
  sub67                    316.61       0.00       0.00       0.99     233.84      19.43     287.20        5.34  4421.49   0.907
  sub68                    316.61       0.00       0.00       1.76     206.56      32.01     280.24        7.71  6180.91   0.885
  sub69                    316.61       0.00       0.00       1.66     213.21      35.98     285.50       10.57  7573.27   0.902
  sub7                     275.15       0.00       0.00       1.09     193.02      18.10     242.70        0.82   675.56   0.882
  sub70                    316.61       0.00       0.00       5.59     171.00      82.54     285.25        8.24  4687.73   0.901
  sub71                    316.61       0.00       0.00       0.93     207.33      17.18     274.37        7.17  5575.57   0.867
  sub72                    316.61       0.00       0.00       0.89     224.09      16.05     281.34        3.87  2743.81   0.889
  sub8                     275.15       0.00       0.00       1.07     187.59      17.58     239.80        1.53  1267.39   0.872
  sub9                     275.15       0.00       0.00       1.04     181.86      17.04     236.75        1.14   954.30   0.860
  

  ***********************
  LID Performance Summary
  ***********************

  --------------------------------------------------------------------------------------------------------------------
                                         Total      Evap     Infil   Surface    Drain    Initial     Final  Continuity
                                        Inflow      Loss      Loss   Outflow   Outflow   Storage   Storage       Error
  Subcatchment      LID Control             mm        mm        mm        mm        mm        mm        mm           %
  --------------------------------------------------------------------------------------------------------------------
  sub1              GreenRoof           275.15      0.00      0.00    140.05      0.00      7.05    142.14       -0.00
  sub10             GreenRoof           275.15      0.00      0.00    140.05      0.00      7.05    142.14       -0.00
  sub11             GreenRoof           275.15      0.00      0.00    140.05      0.00      7.05    142.14       -0.00
  sub12             GreenRoof           275.15      0.00      0.00    140.05      0.00      7.05    142.14       -0.00
  sub14             GreenRoof           275.15      0.00      0.00    140.05      0.00      7.05    142.14       -0.00
  sub15             GreenRoof           275.15      0.00      0.00    140.05      0.00      7.05    142.14       -0.00
  sub16             GreenRoof           275.15      0.00      0.00    140.05      0.00      7.05    142.14       -0.00
  sub17             GreenRoof           275.15      0.00      0.00    140.05      0.00      7.05    142.14       -0.00
  sub2              GreenRoof           275.15      0.00      0.00    140.05      0.00      7.05    142.14       -0.00
  sub22             GreenRoof           275.15      0.00      0.00    140.05      0.00      7.05    142.14       -0.00
  sub23             GreenRoof           275.15      0.00      0.00    140.05      0.00      7.05    142.14       -0.00
  sub3              GreenRoof           275.15      0.00      0.00    140.05      0.00      7.05    142.14       -0.00
  sub4              GreenRoof           275.15      0.00      0.00    140.05      0.00      7.05    142.14       -0.00
  sub5              GreenRoof           275.15      0.00      0.00    140.05      0.00      7.05    142.14       -0.00
  sub60             GreenRoof           316.61      0.00      0.00    174.81      0.00      7.05    148.85        0.00
  sub61             GreenRoof           316.61      0.00      0.00    174.81      0.00      7.05    148.85        0.00
  sub62             GreenRoof           316.61      0.00      0.00    174.81      0.00      7.05    148.85        0.00
  sub63             GreenRoof           316.61      0.00      0.00    174.81      0.00      7.05    148.85        0.00
  sub64             GreenRoof           316.61      0.00      0.00    174.81      0.00      7.05    148.85        0.00
  sub65             GreenRoof           316.61      0.00      0.00    174.81      0.00      7.05    148.85        0.00
  sub66             GreenRoof           316.61      0.00      0.00    174.81      0.00      7.05    148.85        0.00
  sub67             GreenRoof           316.61      0.00      0.00    174.81      0.00      7.05    148.85        0.00
  sub68             GreenRoof           316.61      0.00      0.00    174.81      0.00      7.05    148.85        0.00
  sub69             GreenRoof           316.61      0.00      0.00    174.81      0.00      7.05    148.85        0.00
  sub7              GreenRoof           275.15      0.00      0.00    140.05      0.00      7.05    142.14       -0.00
  sub70             GreenRoof           316.61      0.00      0.00    174.81      0.00      7.05    148.85        0.00
  sub71             GreenRoof           316.61      0.00      0.00    174.81      0.00      7.05    148.85        0.00
  sub72             GreenRoof           316.61      0.00      0.00    174.81      0.00      7.05    148.85        0.00
  sub8              GreenRoof           275.15      0.00      0.00    140.05      0.00      7.05    142.14       -0.00
  sub9              GreenRoof           275.15      0.00      0.00    140.05      0.00      7.05    142.14       -0.00
  
  ******************
  Node Depth Summary
  ******************
  
  ---------------------------------------------------------------------------------
                                 Average  Maximum  Maximum  Time of Max    Reported
                                   Depth    Depth      HGL   Occurrence   Max Depth
  Node                 Type       Meters   Meters   Meters  days hr:min      Meters
  ---------------------------------------------------------------------------------
  HS02004478           JUNCTION     0.52     1.86    11.09     0  01:59        1.86
  HS02004479           JUNCTION     0.60     1.80    11.01     0  02:10        1.80
  HS02004480           JUNCTION     0.57     1.70    10.94     0  01:44        1.70
  HS02004770           JUNCTION     0.53     1.42    11.25     0  01:31        1.42
  HS02004777           JUNCTION     0.56     1.48    11.28     0  01:59        1.48
  HS02004785           JUNCTION     0.45     1.49    11.39     0  01:59        1.49
  HS02004788           JUNCTION     0.42     1.42    11.32     0  01:59        1.42
  HS02004792           JUNCTION     0.53     1.60    11.12     0  01:36        1.60
  HS02004799           JUNCTION     0.65     1.76    10.97     0  01:44        1.76
  HS02004802           JUNCTION     0.63     1.92    11.05     0  01:59        1.92
  HS02004807           JUNCTION     0.63     1.92    11.09     0  01:59        1.92
  HS02004817           JUNCTION     0.95     2.42    11.27     0  02:10        2.42
  HS02004824           JUNCTION     0.52     2.01    11.41     0  01:59        2.01
  HS02004830           JUNCTION     0.51     2.03    11.50     0  02:10        2.03
  HS02004837           JUNCTION     0.47     2.04    11.62     0  01:59        2.04
  HS02004842           JUNCTION     0.76     2.22    11.49     0  02:03        2.22
  HS02004848           JUNCTION     0.46     2.07    11.67     0  01:59        2.07
  HS02004852           JUNCTION     0.47     2.12    11.63     0  01:59        2.12
  HS02004856           JUNCTION     0.52     2.07    11.50     0  01:59        2.07
  HS02004862           JUNCTION     0.48     2.00    11.38     0  01:59        2.00
  HS02004870           JUNCTION     0.48     2.10    11.39     0  01:59        2.10
  HS02004876           JUNCTION     0.55     2.26    11.29     0  01:59        2.26
  HS02004881           JUNCTION     0.46     2.15    11.18     0  02:24        2.15
  HS02004901           JUNCTION     0.54     1.42    11.24     0  01:31        1.42
  WS02001211           JUNCTION     0.67     0.84     5.68     0  02:19        0.84
  WS02001212           JUNCTION     0.42     0.60     5.67     0  02:18        0.60
  WS02001213           JUNCTION     0.64     0.90     5.66     0  02:18        0.90
  WS02003059           JUNCTION     0.71     0.97     5.66     0  02:20        0.97
  WS02003060           JUNCTION     0.44     0.72     5.65     0  02:28        0.72
  WS02003066           JUNCTION     0.27     0.47     6.03     0  02:14        0.47
  WS02003067           JUNCTION     0.59     0.91     6.23     0  02:13        0.91
  WS02003069           JUNCTION     0.49     0.81     5.40     0  02:29        0.81
  WS02003072           JUNCTION     0.54     0.84     5.21     0  02:30        0.84
  WS02003073           JUNCTION     0.33     0.54     4.60     0  02:21        0.54
  WS02004138           JUNCTION     0.13     0.14     7.39     0  00:29        0.14
  WS02004139           JUNCTION     0.61     0.77     5.68     0  02:18        0.77
  WS02004401           JUNCTION     0.98     2.66     8.66     0  01:59        2.66
  WS02004402           JUNCTION     0.98     2.74     8.70     0  01:59        2.74
  WS02004403           JUNCTION     0.97     1.99     7.92     0  01:18        1.96
  WS02004404           JUNCTION     1.02     3.72     9.57     0  01:59        3.72
  WS02004405           JUNCTION     1.00     3.80     9.65     0  01:59        3.80
  WS02004406           JUNCTION     0.97     2.08     7.91     0  01:18        1.90
  WS02004407           JUNCTION     0.40     1.09     7.40     0  02:13        1.08
  WS02004409           JUNCTION     0.69     1.71     7.48     0  01:59        1.71
  WS02004410           JUNCTION     0.67     1.44     7.16     0  01:59        1.39
  WS02004411           JUNCTION     0.66     1.28     6.96     0  02:18        1.28
  WS02004412           JUNCTION     0.64     1.16     6.80     0  02:32        1.15
  WS02004413           JUNCTION     0.75     1.18     6.65     0  02:24        1.17
  WS02006109           JUNCTION     1.32     2.64     9.26     0  01:18        2.64
  WS02006110           JUNCTION     1.22     2.76     9.34     0  01:18        2.62
  WS02006111           JUNCTION     0.71     2.68     9.39     0  01:59        2.68
  WS02006112           JUNCTION     1.26     2.68     8.56     0  01:18        2.68
  WS02006113           JUNCTION     0.78     2.73     9.62     0  01:59        2.73
  WS02006115           JUNCTION     0.94     2.36     8.50     0  01:18        2.30
  WS02006116           JUNCTION     0.99     2.31     8.35     0  01:59        2.22
  WS02006228           JUNCTION     1.43     3.03     9.68     0  01:59        3.03
  WS02006229           JUNCTION     1.48     3.25     9.94     0  01:59        3.24
  WS02006230           JUNCTION     1.30     2.65     9.39     0  01:24        2.65
  WS02006231           JUNCTION     0.98     2.24     9.36     0  01:29        2.24
  WS02006232           JUNCTION     1.04     2.18     9.22     0  01:23        2.18
  WS02006234           JUNCTION     0.89     1.96     9.12     0  01:16        1.96
  WS02006235           JUNCTION     0.89     2.00     9.16     0  01:16        2.00
  WS02006238           JUNCTION     0.90     2.06     9.21     0  01:26        1.94
  WS02006239           JUNCTION     0.82     2.03     9.24     0  01:16        1.91
  WS02006240           JUNCTION     0.75     2.10     9.39     0  01:16        2.10
  WS02006242           JUNCTION     0.76     1.55     8.82     0  00:05        1.55
  WS02006243           JUNCTION     0.63     1.48     8.90     0  00:05        1.48
  WS02006245           JUNCTION     0.60     1.56     9.04     0  01:16        1.46
  WS02006247           JUNCTION     0.59     1.47     8.97     0  01:15        1.47
  WS02006248           JUNCTION     0.53     1.10     8.69     0  00:05        1.10
  WS02006249           JUNCTION     0.54     1.09     8.69     0  00:05        1.09
  WS02006251           JUNCTION     0.84     2.21     9.88     0  01:15        2.21
  WS02006252           JUNCTION     0.57     1.50     9.74     0  00:00        1.50
  WS02006253           JUNCTION     1.08     3.52    11.16     0  01:15        3.41
  WS02006256           JUNCTION     1.18     2.35     9.28     0  00:00        2.35
  WS02006280           JUNCTION     0.63     1.83    10.10     0  01:59        1.83
  WS02006284           JUNCTION     0.86     1.99    10.39     0  01:59        1.95
  WS02006287           JUNCTION     0.61     1.89    10.84     0  01:59        1.89
  WSF200               JUNCTION     0.27     0.55     5.78     0  02:19        0.55
  YS02001580           JUNCTION     0.26     1.05     9.59     0  01:18        0.78
  YS02001583           JUNCTION     0.30     1.01     9.51     0  01:59        1.01
  YS02001586           JUNCTION     0.43     1.13     9.30     0  01:18        1.13
  YS02001590           JUNCTION     0.56     1.40     9.26     0  01:26        1.40
  YS02001593           JUNCTION     0.49     1.46     9.32     0  01:59        1.46
  YS02001596           JUNCTION     0.64     1.69     9.11     0  01:59        1.67
  YS02001600           JUNCTION     0.74     1.87     9.00     0  01:26        1.87
  YS02001601           JUNCTION     0.92     2.06     8.90     0  01:17        2.06
  YS02001602           JUNCTION     0.81     1.87     8.77     0  01:18        1.87
  YS02001605           JUNCTION     0.75     1.78     8.68     0  01:18        1.78
  YS02001607           JUNCTION     0.71     1.68     8.53     0  01:26        1.68
  YS02001610           JUNCTION     0.75     1.68     8.48     0  01:18        1.68
  YS02001613           JUNCTION     0.71     1.70     8.54     0  01:59        1.70
  YS02001616           JUNCTION     0.65     1.61     8.52     0  01:18        1.61
  YS02001619           JUNCTION     0.63     1.61     8.54     0  01:26        1.61
  YS02001622           JUNCTION     0.61     1.62     8.52     0  01:26        1.60
  YS02001625           JUNCTION     0.86     1.78     8.38     0  01:18        1.78
  YS02001629           JUNCTION     0.76     1.85     8.40     0  01:18        1.85
  YS02001633           JUNCTION     0.85     2.08     8.53     0  01:26        2.08
  YS02001641           JUNCTION     0.79     2.10     8.54     0  01:59        2.10
  YS02001644           JUNCTION     0.77     1.92     8.35     0  01:24        1.92
  YS02001647           JUNCTION     0.55     1.80     8.41     0  01:35        1.80
  YS02001649           JUNCTION     0.61     2.05     8.44     0  01:26        2.05
  YS02001652           JUNCTION     0.50     2.16     8.76     0  01:26        2.16
  YS02001655           JUNCTION     0.42     2.20     9.05     0  01:34        2.20
  YS02001658           JUNCTION     0.34     2.30     9.44     0  01:34        2.30
  YS02001661           JUNCTION     0.35     2.46     9.86     0  01:34        2.46
  YS02001664           JUNCTION     0.21     2.31    10.23     0  01:34        2.31
  YS02001745           JUNCTION     0.20     2.35     9.87     0  01:37        2.35
  YS02001748           JUNCTION     0.29     2.27     9.35     0  01:35        2.27
  YS02001751           JUNCTION     0.34     2.20     9.08     0  01:35        2.18
  YS02001754           JUNCTION     0.42     2.20     8.81     0  01:59        2.20
  YS02001757           JUNCTION     0.60     2.21     8.47     0  01:35        2.21
  YS02001759           JUNCTION     0.56     2.21     8.57     0  01:26        2.21
  YS02001762           JUNCTION     0.55     2.15     8.55     0  01:34        2.15
  YS02001765           JUNCTION     0.52     2.10     8.55     0  01:59        2.08
  YS02001767           JUNCTION     0.52     2.03     8.52     0  01:59        2.03
  YS02001770           JUNCTION     0.53     1.95     8.44     0  01:29        1.95
  YS02001774           JUNCTION     0.59     2.05     8.47     0  01:23        2.05
  YS02001779           JUNCTION     0.41     1.68     8.37     0  01:23        1.68
  YS02001783           JUNCTION     0.47     2.40     8.54     0  01:59        2.40
  YS02001784           JUNCTION     0.45     1.48     7.55     0  01:26        1.48
  YS02001786           JUNCTION     0.37     1.01     7.04     0  01:44        0.99
  YS02001788           JUNCTION     0.26     0.69     6.67     0  01:36        0.69
  YS02001790           JUNCTION     0.30     0.79     6.43     0  01:36        0.75
  YS02001791           JUNCTION     0.18     0.48     5.95     0  01:36        0.46
  YS02001793           JUNCTION     0.10     0.37     5.21     0  01:39        0.36
  YS02001882           JUNCTION     0.61     1.83     8.55     0  01:34        1.83
  YS02001884           JUNCTION     0.70     1.93     8.55     0  01:34        1.93
  YS02001887           JUNCTION     0.78     2.00     8.54     0  01:26        2.00
  YS02001890           JUNCTION     0.79     1.81     8.32     0  01:22        1.81
  YS02001895           JUNCTION     0.56     1.67     8.42     0  01:26        1.61
  YS02001898           JUNCTION     0.57     1.77     8.51     0  01:26        1.77
  YS02001901           JUNCTION     0.68     1.81     8.41     0  01:26        1.76
  YS02001904           JUNCTION     0.66     1.85     8.48     0  01:59        1.85
  YS02001907           JUNCTION     0.97     1.96     8.25     0  01:22        1.96
  YS02001910           JUNCTION     0.80     2.10     8.61     0  01:26        2.10
  YS02001915           JUNCTION     0.64     2.00     8.72     0  01:26        2.00
  YS02001918           JUNCTION     0.46     1.81     8.88     0  01:23        1.81
  YS02001920           JUNCTION     0.55     2.06     9.07     0  01:23        2.03
  YS02001923           JUNCTION     0.40     1.95     9.21     0  01:23        1.92
  YS02001926           JUNCTION     0.39     1.90     9.35     0  01:59        1.90
  YS02001929           JUNCTION     0.28     1.78     9.47     0  01:23        1.78
  YS02006553           JUNCTION     0.98     2.19     8.47     0  01:26        2.19
  YS02006556           JUNCTION     0.96     2.35     8.66     0  01:34        2.35
  YS02006558           JUNCTION     1.01     2.50     8.77     0  01:26        2.50
  YS02006561           JUNCTION     0.32     1.25     7.91     0  01:44        1.22
  YS02163301           JUNCTION     0.79     2.03     8.55     0  01:26        2.03
  YS02163601           JUNCTION     0.86     2.08     8.48     0  01:26        2.08
  YS02164001           JUNCTION     0.79     2.10     8.56     0  01:59        1.98
  YSB1154              JUNCTION     0.77     2.10    11.16     0  01:59        2.10
  YSB1171              JUNCTION     0.88     1.95    10.85     0  01:36        1.95
  YSB1174              JUNCTION     0.70     1.95    11.06     0  01:59        1.95
  YSB6556              JUNCTION     0.65     1.80    10.97     0  01:44        1.80
  CC-1                 OUTFALL      0.00     0.00     0.00     0  00:00        0.00
  CC-2                 OUTFALL      0.00     0.00     0.00     0  00:00        0.00
  JK-1                 OUTFALL      0.00     0.00     0.00     0  00:00        0.00
  JK-2                 OUTFALL      0.00     0.00     0.00     0  00:00        0.00
  WSC                  OUTFALL      0.33     0.54     1.21     0  02:31        0.54
  CC-storage           STORAGE      0.56     1.15     6.65     0  02:00        1.15
  JK-storage           STORAGE      1.72     4.28     5.08     0  01:40        4.28
  XR-storage           STORAGE      7.86     9.26     7.26     0  08:00        9.26
  
  
  *******************
  Node Inflow Summary
  *******************
  
  -------------------------------------------------------------------------------------------------
                                  Maximum  Maximum                  Lateral       Total        Flow
                                  Lateral    Total  Time of Max      Inflow      Inflow     Balance
                                   Inflow   Inflow   Occurrence      Volume      Volume       Error
  Node                 Type           LPS      LPS  days hr:min    10^6 ltr    10^6 ltr     Percent
  -------------------------------------------------------------------------------------------------
  HS02004478           JUNCTION      0.00  2332.90     0  01:59           0        15.5      -0.005
  HS02004479           JUNCTION      0.00   375.46     0  01:49           0        1.56       0.043
  HS02004480           JUNCTION      0.00  1961.31     0  01:35           0        10.8       0.019
  HS02004770           JUNCTION   8778.18  9203.32     0  02:25        12.2        12.8       0.023
  HS02004777           JUNCTION      0.03   674.97     0  01:33    0.000864        2.74       0.190
  HS02004785           JUNCTION      0.15   675.43     0  01:34     0.00432        2.74       0.020
  HS02004788           JUNCTION   3195.55  3195.55     0  02:25        4.32        6.61       0.007
  HS02004792           JUNCTION  11053.07 12142.78     0  02:25        16.5        22.1       0.003
  HS02004799           JUNCTION   1886.35  3028.44     0  02:24        2.24        11.3       0.037
  HS02004802           JUNCTION      0.00  1236.52     0  02:10           0        5.37       0.068
  HS02004807           JUNCTION   2315.54  3512.16     0  02:24        2.79        7.37       0.062
  HS02004817           JUNCTION      0.60  1197.07     0  02:19      0.0173        4.63       0.360
  HS02004824           JUNCTION   3599.62  4471.72     0  02:25        5.35        7.47       0.008
  HS02004830           JUNCTION      0.15  1046.62     0  02:25     0.00432        2.49       0.060
  HS02004837           JUNCTION   2144.21  2144.21     0  02:25        2.92        3.61       0.016
  HS02004842           JUNCTION      0.00  2353.20     0  02:25           0        3.53       0.381
  HS02004848           JUNCTION   3544.30  3544.30     0  02:25        5.74        6.61       0.001
  HS02004852           JUNCTION      0.00   881.24     0  02:24           0        4.14       0.008
  HS02004856           JUNCTION    954.30  1834.95     0  02:24        1.14        5.28       0.029
  HS02004862           JUNCTION   1556.25  2593.54     0  02:25         2.4        7.26       0.007
  HS02004870           JUNCTION   1267.39  1305.78     0  02:39        1.53         6.5       0.002
  HS02004876           JUNCTION   1274.04  2200.02     0  02:25        1.72        8.15       0.007
  HS02004881           JUNCTION    675.56  1739.29     0  02:29       0.818        8.55       0.005
  HS02004901           JUNCTION   2003.04  2268.83     0  02:25        2.62        3.88       0.046
  WS02001211           JUNCTION      7.35   274.50     0  01:24       0.212        5.44       0.610
  WS02001212           JUNCTION      0.00   283.71     0  01:22           0        5.41       0.291
  WS02001213           JUNCTION      0.00   269.68     0  01:21           0         5.4       0.328
  WS02003059           JUNCTION      0.00   320.43     0  01:21           0         5.4       0.593
  WS02003060           JUNCTION     16.53  1614.44     0  02:28       0.476        16.8       0.087
  WS02003066           JUNCTION      0.00  1401.25     0  02:14           0          11       0.013
  WS02003067           JUNCTION      0.00  1400.59     0  02:31           0          11       0.040
  WS02003069           JUNCTION      0.32  1614.19     0  02:29     0.00922        16.8       0.092
  WS02003072           JUNCTION      0.00  1614.12     0  02:29           0        16.8       0.125
  WS02003073           JUNCTION      1.82  1615.91     0  02:30      0.0524        16.8       0.128
  WS02004138           JUNCTION      0.00   380.00     0  00:00           0        5.25       0.054
  WS02004139           JUNCTION      0.32   197.34     0  01:23     0.00924        5.26       0.508
  WS02004401           JUNCTION      0.00  1400.57     0  02:29           0        11.1       0.093
  WS02004402           JUNCTION      0.00  1400.62     0  02:29           0        11.1       0.092
  WS02004403           JUNCTION      0.00  1416.91     0  01:59           0          11       0.094
  WS02004404           JUNCTION      0.16  1401.46     0  02:28     0.00467          11       0.076
  WS02004405           JUNCTION      0.04  1401.59     0  02:22      0.0011          11       0.115
  WS02004406           JUNCTION      0.00  1400.67     0  02:31           0          11       0.195
  WS02004407           JUNCTION      0.00  1400.55     0  02:29           0          11       0.013
  WS02004409           JUNCTION      0.00  1400.37     0  02:15           0          11       0.030
  WS02004410           JUNCTION      0.00  1400.43     0  02:14           0          11       0.045
  WS02004411           JUNCTION      0.00  1400.81     0  02:24           0          11       0.054
  WS02004412           JUNCTION      0.00  1400.38     0  02:25           0          11       0.072
  WS02004413           JUNCTION      0.00  1400.52     0  02:31           0          11       0.123
  WS02006109           JUNCTION      1.23  1289.64     0  02:10      0.0354        10.7       0.083
  WS02006110           JUNCTION      0.00  1178.90     0  01:17           0        9.38       0.075
  WS02006111           JUNCTION      0.00  1183.31     0  01:18           0        9.37       0.009
  WS02006112           JUNCTION   1631.01  2468.56     0  02:25        2.23        11.6       0.166
  WS02006113           JUNCTION      0.00  1179.09     0  01:17           0        9.37       0.025
  WS02006115           JUNCTION      0.00  1400.76     0  02:29           0        11.1       0.063
  WS02006116           JUNCTION      0.00  1400.95     0  02:29           0        11.1      -0.019
  WS02006228           JUNCTION      0.00  1289.29     0  01:59           0        10.7       0.036
  WS02006229           JUNCTION      0.00  2304.36     0  02:03           0        16.6       0.044
  WS02006230           JUNCTION     10.28  1026.82     0  02:10       0.296        7.03       0.132
  WS02006231           JUNCTION      0.00   500.87     0  01:26           0        3.86      -0.096
  WS02006232           JUNCTION      0.00   495.50     0  01:26           0        3.84       0.114
  WS02006234           JUNCTION      0.00   483.80     0  01:26           0        3.81      -0.084
  WS02006235           JUNCTION      0.00   479.04     0  01:59           0        3.55       0.060
  WS02006238           JUNCTION      0.00   461.65     0  00:06           0        3.49      -0.098
  WS02006239           JUNCTION      0.00   488.54     0  00:06           0        3.46      -0.121
  WS02006240           JUNCTION      0.00   568.63     0  00:06           0        3.45      -0.049
  WS02006242           JUNCTION      0.00   620.39     0  00:05           0        3.45      -0.109
  WS02006243           JUNCTION      0.00   665.04     0  01:16           0        2.57      -0.311
  WS02006245           JUNCTION      0.00   778.32     0  01:16           0        2.59       0.577
  WS02006247           JUNCTION      0.00   831.33     0  01:15           0        2.59      -0.106
  WS02006248           JUNCTION      0.00   842.68     0  01:15           0        2.99      -0.198
  WS02006249           JUNCTION      0.00  1411.09     0  02:24           0        9.11       0.133
  WS02006251           JUNCTION      0.08  1901.27     0  02:24     0.00222        10.1      -0.026
  WS02006252           JUNCTION      0.00  2420.21     0  02:21           0        9.01      -0.233
  WS02006253           JUNCTION    166.61  1900.71     0  02:24       0.221        8.87      -0.014
  WS02006256           JUNCTION      0.00  1500.00     0  00:20           0        2.44       0.854
  WS02006280           JUNCTION      0.00  2303.25     0  02:03           0        15.5       0.003
  WS02006284           JUNCTION      0.10  2329.45     0  01:59     0.00275        15.5       0.008
  WS02006287           JUNCTION      0.00  2341.85     0  01:59           0        15.5       0.012
  WSF200               JUNCTION      0.00  1402.01     0  02:14           0          11       0.007
  YS02001580           JUNCTION      0.00   117.83     0  01:18           0     0.00443      -0.417
  YS02001583           JUNCTION      0.00   151.99     0  01:18           0      0.0157      -3.899
  YS02001586           JUNCTION   4687.73  4687.76     0  01:38        8.24        8.25       0.017
  YS02001590           JUNCTION      0.00   334.23     0  01:59           0        2.36      -0.037
  YS02001593           JUNCTION      0.00   326.12     0  01:26           0        2.36       0.009
  YS02001596           JUNCTION      0.00   318.11     0  01:53           0        2.36      -0.002
  YS02001600           JUNCTION      0.00   318.53     0  01:26           0        2.36       0.015
  YS02001601           JUNCTION   7573.27  7890.92     0  01:38        10.6        12.9       0.003
  YS02001602           JUNCTION      0.00   549.73     0  01:17           0         3.3       0.012
  YS02001605           JUNCTION      0.00   550.03     0  01:17           0        2.99       0.014
  YS02001607           JUNCTION      0.00   550.20     0  01:17           0        2.98       0.057
  YS02001610           JUNCTION      0.00   958.93     0  01:44           0        4.88       0.050
  YS02001613           JUNCTION      0.00   622.69     0  01:44           0        3.34       0.037
  YS02001616           JUNCTION      0.00   622.23     0  01:44           0        3.34       0.003
  YS02001619           JUNCTION   8288.93  8288.93     0  01:38        13.1        14.6      -0.002
  YS02001622           JUNCTION      0.00  1075.96     0  01:59           0        7.24      -0.002
  YS02001625           JUNCTION      0.00  1505.51     0  02:04           0        8.46       0.121
  YS02001629           JUNCTION      0.00  1139.06     0  01:39           0        5.86       0.003
  YS02001633           JUNCTION   5649.43  5649.43     0  01:38        7.95        11.5       0.028
  YS02001641           JUNCTION      0.00  1392.65     0  01:21           0        7.44       0.042
  YS02001644           JUNCTION   5046.53  6795.40     0  01:37        6.78        15.1       0.019
  YS02001647           JUNCTION      0.00  1800.87     0  01:22           0        8.76       0.003
  YS02001649           JUNCTION      0.00  2647.90     0  01:40           0        13.5       0.002
  YS02001652           JUNCTION      0.00  2429.33     0  01:37           0        5.65      -0.048
  YS02001655           JUNCTION      0.15  2731.44     0  01:43     0.00443        5.84       0.011
  YS02001658           JUNCTION      0.00  2783.85     0  01:37           0        5.87      -0.006
  YS02001661           JUNCTION      0.00  2783.86     0  01:37           0        5.87       0.005
  YS02001664           JUNCTION   4883.72  4883.72     0  01:37        6.49        6.49      -0.007
  YS02001745           JUNCTION   3027.67  3027.67     0  01:37         3.7         3.7       0.014
  YS02001748           JUNCTION      0.04  3026.51     0  01:37      0.0013        3.71      -0.032
  YS02001751           JUNCTION      0.01  2391.65     0  01:40    0.000317        3.62       0.022
  YS02001754           JUNCTION      0.26  2392.28     0  01:39     0.00749        3.62      -0.042
  YS02001757           JUNCTION      0.00  3980.10     0  01:39           0        22.3       0.009
  YS02001759           JUNCTION   4184.18  4184.18     0  01:37        5.28        8.12      -0.009
  YS02001762           JUNCTION      0.00   823.36     0  02:09           0        3.38       0.002
  YS02001765           JUNCTION      0.00   822.90     0  02:09           0        3.38       0.009
  YS02001767           JUNCTION      0.54   822.96     0  02:09      0.0154        3.38       0.008
  YS02001770           JUNCTION   6010.34  6693.15     0  01:37         7.8        8.38      -0.006
  YS02001774           JUNCTION      0.00   852.14     0  01:54           0        1.79       0.057
  YS02001779           JUNCTION      0.01   851.80     0  01:39    0.000144        1.73      -0.021
  YS02001783           JUNCTION      0.00  1321.83     0  01:37           0        7.88       0.004
  YS02001784           JUNCTION      1.06  1322.84     0  01:37      0.0305        7.91       0.007
  YS02001786           JUNCTION      0.06  1322.80     0  01:39     0.00162        7.91       0.005
  YS02001788           JUNCTION      0.07  1322.89     0  01:37     0.00204        7.92       0.003
  YS02001790           JUNCTION      0.15  1338.01     0  01:36     0.00446        7.92       0.025
  YS02001791           JUNCTION      0.00  1411.26     0  01:36           0        7.92      -0.047
  YS02001793           JUNCTION      0.00  1444.29     0  01:36           0        7.92       0.006
  YS02001882           JUNCTION      0.00    53.06     0  01:19           0      0.0138       4.692
  YS02001884           JUNCTION      0.00    88.09     0  01:14           0      0.0502       5.018
  YS02001887           JUNCTION   4421.94  4421.94     0  01:37        5.35        5.39       0.077
  YS02001890           JUNCTION      0.00  2052.03     0  01:44           0        4.65       0.112
  YS02001895           JUNCTION      0.00   584.23     0  01:26           0        2.66       0.095
  YS02001898           JUNCTION      0.00   530.50     0  01:26           0        2.66      -0.014
  YS02001901           JUNCTION      0.00   537.14     0  01:59           0        2.66       0.134
  YS02001904           JUNCTION      0.00   520.76     0  02:10           0        2.67       0.099
  YS02001907           JUNCTION      0.00  4670.72     0  01:40           0        12.2       0.144
  YS02001910           JUNCTION      0.00  1993.21     0  01:54           0        7.42       0.098
  YS02001915           JUNCTION   5575.59  6795.91     0  01:37        7.18        10.5       0.012
  YS02001918           JUNCTION      0.00  1681.99     0  01:43           0        3.65      -0.001
  YS02001920           JUNCTION      2.87  1682.07     0  01:44      0.0827        3.64       0.027
  YS02001923           JUNCTION      0.04  1679.47     0  01:39     0.00109        3.54      -0.015
  YS02001926           JUNCTION      0.05  1679.34     0  01:44      0.0015        3.52       0.014
  YS02001929           JUNCTION   2743.81  2743.81     0  01:38        3.87        3.87      -0.020
  YS02006553           JUNCTION      0.00  2161.04     0  01:39           0        5.19       0.229
  YS02006556           JUNCTION      0.00  2161.40     0  01:41           0         5.2       0.159
  YS02006558           JUNCTION   6181.79  6181.79     0  01:37        7.74        10.8       0.025
  YS02006561           JUNCTION      0.00  1321.87     0  01:37           0        7.88       0.001
  YS02163301           JUNCTION      0.00  1138.90     0  01:38           0        5.87       0.029
  YS02163601           JUNCTION      0.11  1394.37     0  01:22     0.00317        7.43       0.068
  YS02164001           JUNCTION      0.00  1393.90     0  01:22           0        7.43       0.035
  YSB1154              JUNCTION   2184.17  2184.17     0  02:25        2.83        2.83       0.048
  YSB1171              JUNCTION      0.00  1630.09     0  02:23           0        4.48       0.145
  YSB1174              JUNCTION   1779.76  1779.76     0  02:24        2.16        2.16       0.059
  YSB6556              JUNCTION      0.00   725.69     0  02:31           0        2.15       0.062
  CC-1                 OUTFALL       0.00  3415.00     0  00:05           0        1.64       0.000
  CC-2                 OUTFALL       0.00  3415.00     0  00:05           0        13.3       0.000
  JK-1                 OUTFALL       0.00  5000.00     0  01:15           0        1.88       0.000
  JK-2                 OUTFALL       0.00  5000.00     0  01:15           0        3.72       0.000
  WSC                  OUTFALL       0.00  1615.87     0  02:31           0        16.8       0.000
  CC-storage           STORAGE       0.00  3800.11     0  01:35           0        24.4      -0.082
  JK-storage           STORAGE       0.00  1631.72     0  01:40           0        8.07      -0.217
  XR-storage           STORAGE     200.00   200.00     0  00:00        5.76        6.36       0.001
  
  
  **********************
  Node Surcharge Summary
  **********************
  
  Surcharging occurs when water rises above the top of the highest conduit.
  ---------------------------------------------------------------------
                                               Max. Height   Min. Depth
                                   Hours       Above Crown    Below Rim
  Node                 Type      Surcharged         Meters       Meters
  ---------------------------------------------------------------------
  HS02004478           JUNCTION        1.49          0.940        0.000
  HS02004479           JUNCTION        1.63          1.003        0.047
  HS02004480           JUNCTION        1.67          0.993        0.107
  HS02004770           JUNCTION        1.56          0.720        0.000
  HS02004777           JUNCTION        1.57          0.780        0.000
  HS02004785           JUNCTION        1.51          0.790        0.000
  HS02004788           JUNCTION        1.50          0.720        0.000
  HS02004792           JUNCTION        1.63          0.900        0.000
  HS02004799           JUNCTION        1.79          1.060        0.000
  HS02004802           JUNCTION        1.69          1.210        0.000
  HS02004807           JUNCTION        1.65          1.220        0.000
  HS02004817           JUNCTION        2.03          1.719        0.021
  HS02004824           JUNCTION        1.51          1.310        0.000
  HS02004830           JUNCTION        1.48          1.330        0.000
  HS02004837           JUNCTION        1.42          1.340        0.000
  HS02004842           JUNCTION        1.57          1.520        0.000
  HS02004848           JUNCTION        1.41          1.370        0.000
  HS02004852           JUNCTION        1.44          1.420        0.000
  HS02004856           JUNCTION        1.41          1.300        0.000
  HS02004862           JUNCTION        1.46          1.300        0.000
  HS02004870           JUNCTION        1.47          1.400        0.000
  HS02004876           JUNCTION        1.53          1.560        0.000
  HS02004881           JUNCTION        1.49          1.450        0.000
  HS02004901           JUNCTION        1.56          0.720        0.000
  WS02004401           JUNCTION        2.11          1.660        0.000
  WS02004402           JUNCTION        2.12          1.740        0.000
  WS02004403           JUNCTION        2.12          0.990        1.040
  WS02004404           JUNCTION        2.21          2.717        0.063
  WS02004405           JUNCTION        2.19          2.800        0.000
  WS02004406           JUNCTION        2.16          1.078        1.372
  WS02004407           JUNCTION        0.44          0.088        2.252
  WS02004409           JUNCTION        1.85          0.714        1.646
  WS02004410           JUNCTION        1.84          0.436        2.104
  WS02004411           JUNCTION        1.83          0.283        2.247
  WS02004412           JUNCTION        1.78          0.156        2.154
  WS02004413           JUNCTION        1.97          0.176        2.024
  WS02006109           JUNCTION        2.42          1.820        0.000
  WS02006110           JUNCTION        2.28          1.850        0.000
  WS02006111           JUNCTION        1.96          1.870        0.000
  WS02006112           JUNCTION        2.33          1.680        0.000
  WS02006113           JUNCTION        1.97          1.930        0.000
  WS02006115           JUNCTION        2.03          1.355        0.895
  WS02006116           JUNCTION        2.04          1.253        1.037
  WS02006228           JUNCTION        2.42          2.200        0.000
  WS02006229           JUNCTION        1.88          1.070        0.000
  WS02006230           JUNCTION        2.17          1.570        0.000
  WS02006231           JUNCTION        2.18          1.530        0.000
  WS02006232           JUNCTION        2.28          1.480        0.000
  WS02006234           JUNCTION        2.17          1.240        0.000
  WS02006235           JUNCTION        2.19          1.290        0.000
  WS02006238           JUNCTION        2.20          1.342        0.088
  WS02006239           JUNCTION        2.16          1.290        0.000
  WS02006240           JUNCTION        2.14          1.390        0.000
  WS02006242           JUNCTION        2.16          0.820        0.000
  WS02006243           JUNCTION        2.11          0.770        0.000
  WS02006245           JUNCTION        2.09          0.850        0.000
  WS02006247           JUNCTION        2.11          0.760        0.000
  WS02006248           JUNCTION        2.07          0.380        0.000
  WS02006249           JUNCTION        2.08          0.390        0.000
  WS02006251           JUNCTION        1.91          1.180        0.000
  WS02006252           JUNCTION        2.14          1.100        0.000
  WS02006253           JUNCTION        1.96          2.480        0.000
  WS02006256           JUNCTION        5.91          2.050        0.000
  WS02006280           JUNCTION        1.79          0.780        0.000
  WS02006284           JUNCTION        1.71          0.714        0.086
  WS02006287           JUNCTION        1.59          0.890        0.000
  YS02001580           JUNCTION        1.73          0.450        0.000
  YS02001583           JUNCTION        1.73          0.372        0.128
  YS02001586           JUNCTION        1.79          0.510        0.000
  YS02001590           JUNCTION        1.84          0.750        0.000
  YS02001593           JUNCTION        1.84          0.840        0.000
  YS02001596           JUNCTION        1.91          0.960        0.110
  YS02001600           JUNCTION        1.97          1.190        0.000
  YS02001601           JUNCTION        2.14          1.440        0.000
  YS02001602           JUNCTION        2.08          1.270        0.000
  YS02001605           JUNCTION        2.06          1.180        0.000
  YS02001607           JUNCTION        1.78          0.680        0.000
  YS02001610           JUNCTION        1.79          0.680        0.000
  YS02001613           JUNCTION        1.77          0.700        0.000
  YS02001616           JUNCTION        1.75          0.610        0.000
  YS02001619           JUNCTION        1.74          0.610        0.000
  YS02001622           JUNCTION        1.73          0.620        0.000
  YS02001625           JUNCTION        1.85          0.780        0.000
  YS02001629           JUNCTION        1.69          0.470        0.000
  YS02001633           JUNCTION        1.85          1.060        0.000
  YS02001641           JUNCTION        1.78          1.100        0.000
  YS02001644           JUNCTION        1.74          0.920        0.000
  YS02001647           JUNCTION        1.38          0.797        0.103
  YS02001649           JUNCTION        1.45          1.050        0.000
  YS02001652           JUNCTION        1.22          1.130        0.000
  YS02001655           JUNCTION        1.02          1.200        0.000
  YS02001658           JUNCTION        0.83          1.300        0.000
  YS02001661           JUNCTION        0.55          1.390        0.000
  YS02001664           JUNCTION        0.34          1.310        0.000
  YS02001745           JUNCTION        0.28          1.350        0.000
  YS02001748           JUNCTION        0.65          1.190        0.000
  YS02001751           JUNCTION        0.88          1.200        0.000
  YS02001754           JUNCTION        1.02          1.150        0.000
  YS02001757           JUNCTION        1.42          1.210        0.000
  YS02001759           JUNCTION        1.32          1.210        0.000
  YS02001762           JUNCTION        1.29          1.150        0.000
  YS02001765           JUNCTION        1.25          1.100        0.000
  YS02001767           JUNCTION        1.22          1.030        0.000
  YS02001770           JUNCTION        1.21          0.920        0.000
  YS02001774           JUNCTION        1.30          1.050        0.000
  YS02001779           JUNCTION        1.10          0.680        0.000
  YS02001783           JUNCTION        1.67          1.600        0.000
  YS02001784           JUNCTION        1.63          0.681        0.809
  YS02001786           JUNCTION        1.43          0.212        1.218
  YS02001882           JUNCTION        1.56          0.830        0.000
  YS02001884           JUNCTION        1.59          0.870        0.000
  YS02001887           JUNCTION        1.66          0.950        0.000
  YS02001890           JUNCTION        1.68          0.760        0.000
  YS02001895           JUNCTION        1.54          0.672        0.078
  YS02001898           JUNCTION        1.52          0.740        0.000
  YS02001901           JUNCTION        1.63          0.806        0.064
  YS02001904           JUNCTION        1.61          0.850        0.000
  YS02001907           JUNCTION        1.82          0.950        0.000
  YS02001910           JUNCTION        1.71          1.100        0.000
  YS02001915           JUNCTION        1.56          1.000        0.000
  YS02001918           JUNCTION        1.40          0.810        0.000
  YS02001920           JUNCTION        1.43          1.063        0.077
  YS02001923           JUNCTION        0.67          0.735        0.085
  YS02001926           JUNCTION        0.73          0.900        0.000
  YS02001929           JUNCTION        0.51          0.780        0.000
  YS02006553           JUNCTION        1.83          1.190        0.000
  YS02006556           JUNCTION        1.77          1.312        0.038
  YS02006558           JUNCTION        1.76          1.400        0.000
  YS02006561           JUNCTION        1.35          0.447        0.703
  YS02163301           JUNCTION        1.84          1.030        0.000
  YS02163601           JUNCTION        1.86          1.080        0.000
  YS02164001           JUNCTION        1.79          1.099        0.001
  YSB1154              JUNCTION        1.88          1.400        0.000
  YSB1171              JUNCTION        1.88          1.100        0.000
  YSB1174              JUNCTION        1.83          1.250        0.000
  YSB6556              JUNCTION        1.76          1.100        0.000
  
  
  *********************
  Node Flooding Summary
  *********************
  
  Flooding refers to all water that overflows a node, whether it ponds or not.
  --------------------------------------------------------------------------
                                                             Total   Maximum
                                 Maximum   Time of Max       Flood    Ponded
                        Hours       Rate    Occurrence      Volume     Depth
  Node                 Flooded       LPS   days hr:min    10^6 ltr    Meters
  --------------------------------------------------------------------------
  HS02004478              0.01      0.50      0  01:59       0.000     0.000
  HS02004770              1.32   8937.34      0  02:25       9.247     0.000
  HS02004777              0.01     57.74      0  01:59       0.000     0.000
  HS02004785              0.01     64.59      0  01:59       0.000     0.000
  HS02004788              0.23   1679.99      0  02:25       0.611     0.000
  HS02004792              1.32  10999.77      0  02:25      13.064     0.000
  HS02004799              0.82   1723.63      0  02:24       1.321     0.000
  HS02004802              0.01      0.59      0  01:59       0.000     0.000
  HS02004807              0.69   2278.37      0  02:24       1.975     0.000
  HS02004824              0.61   3275.43      0  02:25       2.507     0.000
  HS02004830              0.07    174.44      0  02:25       0.024     0.000
  HS02004837              0.03     44.10      0  02:24       0.002     0.000
  HS02004842              0.60   2353.13      0  02:25       2.349     0.000
  HS02004848              0.19   1393.31      0  02:25       0.455     0.000
  HS02004852              0.01      0.78      0  02:10       0.000     0.000
  HS02004856              0.29    831.90      0  02:24       0.420     0.000
  HS02004862              0.55   2592.98      0  02:25       2.296     0.000
  HS02004870              0.12    336.52      0  02:24       0.061     0.000
  HS02004876              0.23   1134.17      0  02:25       0.421     0.000
  HS02004881              0.01      0.72      0  02:24       0.000     0.000
  HS02004901              1.45   2268.82      0  02:25       3.698     0.000
  WS02004401              0.01      0.23      0  01:59       0.000     0.000
  WS02004402              0.01      1.84      0  01:59       0.000     0.000
  WS02004405              0.01      1.61      0  01:59       0.000     0.000
  WS02006109              1.39    451.33      0  02:25       1.307     0.000
  WS02006110              0.01     15.84      0  01:18       0.000     0.000
  WS02006111              0.01      0.18      0  01:59       0.000     0.000
  WS02006112              0.32   1069.09      0  02:25       0.506     0.000
  WS02006113              0.01      0.18      0  01:59       0.000     0.000
  WS02006228              0.01     26.38      0  01:59       0.000     0.000
  WS02006229              0.01     49.86      0  01:59       0.000     0.000
  WS02006230              1.72    574.03      0  02:10       2.907     0.000
  WS02006231              0.01      7.90      0  01:59       0.000     0.000
  WS02006232              0.43     15.28      0  01:59       0.001     0.000
  WS02006234              1.76    141.56      0  01:59       0.721     0.000
  WS02006235              0.01    119.27      0  01:16       0.001     0.000
  WS02006239              0.01    208.84      0  01:16       0.001     0.000
  WS02006240              0.01    391.75      0  01:16       0.001     0.000
  WS02006242              1.87    290.83      0  01:16       0.874     0.000
  WS02006243              0.01    155.15      0  00:05       0.000     0.000
  WS02006245              0.01    150.98      0  03:25       0.000     0.000
  WS02006247              0.01    221.03      0  01:15       0.000     0.000
  WS02006248              1.94    340.56      0  01:59       2.282     0.000
  WS02006249              1.98   1350.24      0  02:21       7.974     0.000
  WS02006251              0.15    263.28      0  01:15       0.018     0.000
  WS02006252              1.50   2420.21      0  02:21       7.770     0.000
  WS02006253              0.01    343.08      0  01:15       0.001     0.000
  WS02006256              1.51   1481.04      0  03:30       1.915     0.000
  WS02006280              0.01      2.02      0  01:59       0.000     0.000
  WS02006287              0.01      0.89      0  01:59       0.000     0.000
  YS02001580              0.01    100.03      0  01:18       0.000     0.000
  YS02001586              1.66   4370.12      0  01:38       5.876     0.000
  YS02001590              0.01     11.06      0  01:59       0.000     0.000
  YS02001593              0.01      0.22      0  01:59       0.000     0.000
  YS02001600              0.01      2.85      0  01:59       0.000     0.000
  YS02001601              1.74   7492.47      0  01:38       9.627     0.000
  YS02001602              1.50     65.52      0  01:59       0.319     0.000
  YS02001605              0.01      4.08      0  01:59       0.000     0.000
  YS02001607              0.01     15.27      0  01:59       0.000     0.000
  YS02001610              1.40    958.36      0  01:44       3.435     0.000
  YS02001613              0.01      0.99      0  02:03       0.000     0.000
  YS02001616              0.24     16.26      0  02:10       0.001     0.000
  YS02001619              0.64   6617.22      0  01:38       5.428     0.000
  YS02001622              0.01     22.16      0  01:26       0.000     0.000
  YS02001625              1.28   1505.42      0  01:59       4.875     0.000
  YS02001629              0.70    687.24      0  01:36       1.083     0.000
  YS02001633              0.31   3605.34      0  01:38       1.795     0.000
  YS02001641              0.01      0.43      0  01:59       0.000     0.000
  YS02001644              0.78   6794.30      0  01:37       7.285     0.000
  YS02001649              0.26   1800.89      0  01:40       1.029     0.000
  YS02001652              0.01      1.22      0  01:26       0.000     0.000
  YS02001655              0.19    303.29      0  01:40       0.186     0.000
  YS02001658              0.16     52.23      0  01:37       0.029     0.000
  YS02001661              0.01      0.65      0  01:34       0.000     0.000
  YS02001664              0.16   2099.02      0  01:37       0.626     0.000
  YS02001745              0.01      3.28      0  01:37       0.000     0.000
  YS02001748              0.07    645.07      0  01:37       0.093     0.000
  YS02001751              0.01      0.26      0  01:35       0.000     0.000
  YS02001754              0.01      0.15      0  01:59       0.000     0.000
  YS02001757              0.01     67.81      0  01:59       0.001     0.000
  YS02001759              0.15   1961.77      0  01:37       0.527     0.000
  YS02001762              0.08     27.27      0  01:59       0.000     0.000
  YS02001765              0.01     27.02      0  01:59       0.000     0.000
  YS02001767              0.01     17.25      0  01:59       0.000     0.000
  YS02001770              0.45   5841.13      0  01:37       3.795     0.000
  YS02001774              0.01     46.01      0  01:23       0.000     0.000
  YS02001779              0.72    851.49      0  01:54       1.709     0.000
  YS02001783              0.01     26.11      0  01:59       0.000     0.000
  YS02001882              0.01      0.60      0  01:34       0.000     0.000
  YS02001884              0.02      0.88      0  01:44       0.000     0.000
  YS02001887              0.18   2365.67      0  01:37       0.696     0.000
  YS02001890              0.79   1536.85      0  01:44       1.987     0.000
  YS02001898              0.01      1.01      0  01:26       0.000     0.000
  YS02001904              0.01      0.60      0  01:59       0.000     0.000
  YS02001907              1.30   4670.27      0  01:43       9.144     0.000
  YS02001910              0.01      7.26      0  01:59       0.000     0.000
  YS02001915              0.43   4802.23      0  01:37       3.030     0.000
  YS02001918              0.25    460.03      0  01:40       0.320     0.000
  YS02001926              0.01      0.94      0  01:59       0.000     0.000
  YS02001929              0.17   1065.53      0  01:38       0.355     0.000
  YS02006553              0.01      1.36      0  01:59       0.000     0.000
  YS02006558              0.15   2703.04      0  01:37       0.737     0.000
  YS02163301              0.01      0.63      0  01:26       0.000     0.000
  YS02163601              0.01     81.18      0  01:59       0.001     0.000
  YSB1154                 0.31   1458.43      0  02:25       0.688     0.000
  YSB1171                 1.03   1629.78      0  02:23       3.558     0.000
  YSB1174                 0.23   1028.37      0  02:24       0.361     0.000
  YSB6556                 0.34     85.86      0  02:19       0.100     0.000
  
  
  **********************
  Storage Volume Summary
  **********************
  
  --------------------------------------------------------------------------------------------------
                         Average     Avg  Evap Exfil       Maximum     Max    Time of Max    Maximum
                          Volume    Pcnt  Pcnt  Pcnt        Volume    Pcnt     Occurrence    Outflow
  Storage Unit           1000 m3    Full  Loss  Loss       1000 m3    Full    days hr:min        LPS
  --------------------------------------------------------------------------------------------------
  CC-storage               1.574      25     0     0         3.200      50       0  02:00    8830.00
  JK-storage               0.086      30     0     0         0.215      74       0  01:40   11500.00
  XR-storage               0.943      66     0     0         1.111      77       0  08:00     380.00
  
  
  ***********************
  Outfall Loading Summary
  ***********************
  
  -----------------------------------------------------------
                         Flow       Avg       Max       Total
                         Freq      Flow      Flow      Volume
  Outfall Node           Pcnt       LPS       LPS    10^6 ltr
  -----------------------------------------------------------
  CC-1                   3.04   2665.37   3415.00       1.645
  CC-2                  21.19   3307.35   3415.00      13.343
  JK-1                   6.52   1517.78   5000.00       1.876
  JK-2                   3.91   4800.48   5000.00       3.720
  WSC                   99.94    779.10   1615.87      16.764
  -----------------------------------------------------------
  System                26.92  13070.07   1615.87      37.347
  
  
  ********************
  Link Flow Summary
  ********************
  
  -----------------------------------------------------------------------------
                                 Maximum  Time of Max   Maximum    Max/    Max/
                                  |Flow|   Occurrence   |Veloc|    Full    Full
  Link                 Type          LPS  days hr:min     m/sec    Flow   Depth
  -----------------------------------------------------------------------------
  1                    CONDUIT   1615.87     0  02:31      3.76    0.56    0.54
  HS02004478WS02006287 CONDUIT   2341.85     0  01:59      2.61    0.66    1.00
  HS02004479HS02004480 CONDUIT    377.50     0  01:49      0.55    0.36    1.00
  HS02004480HS02004478 CONDUIT   1960.60     0  01:35      2.80    8.26    1.00
  HS02004770HS02004777 CONDUIT    674.94     0  01:33      0.96    1.23    1.00
  HS02004777HS02004785 CONDUIT    675.28     0  01:34      0.98    0.83    1.00
  HS02004785HS02004788 CONDUIT    674.75     0  01:34      1.37    5.09    1.00
  HS02004788HS02004792 CONDUIT   1089.71     0  02:30      1.56    0.72    1.00
  HS02004792HS02004799 CONDUIT   1593.88     0  01:35      2.28    0.98    1.00
  HS02004799HS02004480 CONDUIT   1701.95     0  01:35      2.43    2.15    1.00
  HS02004802HS02004478 CONDUIT   1234.16     0  02:10      1.76    1.09    1.00
  HS02004807HS02004802 CONDUIT   1236.52     0  02:10      1.77    2.36    1.00
  HS02004817HS02004807 CONDUIT   1197.05     0  02:34      1.71    0.71    1.00
  HS02004817HS02004824 CONDUIT   1196.47     0  02:19      1.71    0.54    1.00
  HS02004824HS02004830 CONDUIT    872.22     0  02:26      1.25    1.14    1.00
  HS02004830HS02004837 CONDUIT   1046.47     0  02:25      1.49    1.04    1.00
  HS02004837HS02004842 CONDUIT   1083.36     0  02:25      1.55    0.65    1.00
  HS02004842HS02004848 CONDUIT   1269.84     0  02:30      1.81    0.74    1.00
  HS02004848HS02004852 CONDUIT    881.24     0  02:24      1.39    0.99    1.00
  HS02004852HS02004856 CONDUIT    881.29     0  02:29      1.26    1.01    1.00
  HS02004856HS02004862 CONDUIT   1002.96     0  02:32      1.43    1.00    1.00
  HS02004862HS02004870 CONDUIT   1152.97     0  02:41      1.70    1.25    1.00
  HS02004870HS02004876 CONDUIT   1305.92     0  02:39      1.87    0.87    1.00
  HS02004876HS02004881 CONDUIT   1526.29     0  02:39      2.61   16.23    1.00
  HS02004881HS02006253 CONDUIT   1739.75     0  02:29      2.76    0.34    1.00
  HS02004901HS02004770 CONDUIT    265.79     0  02:36      0.38    1.00    1.00
  WS02001211WS02001212 CONDUIT    238.66     0  01:27      0.54    0.18    0.72
  WS02001212WS02001213 CONDUIT    266.99     0  01:27      1.04    0.41    0.59
  WS02001213WS02003059 CONDUIT    244.51     0  03:14      0.47    0.40    0.92
  WS02003059WS02003060 CONDUIT    254.54     0  03:14      0.66    0.17    0.84
  WS02003060WS02003069 CONDUIT   1613.87     0  02:29      2.12    0.63    0.64
  WS02003066WSF200     CONDUIT   1402.01     0  02:14      3.49    0.24    0.40
  WS02003067WS02003066 CONDUIT   1401.25     0  02:14      2.09    0.45    0.58
  WS02003069WS02003072 CONDUIT   1614.12     0  02:29      1.94    0.78    0.69
  WS02003072WS02003073 CONDUIT   1614.09     0  02:30      2.11    3.49    0.64
  WS02004138WS02004139 CONDUIT    190.77     0  00:29      2.15    0.04    0.43
  WS02004139WS02001211 CONDUIT    267.15     0  01:24      0.54    0.34    0.63
  WS02004401WS02004402 CONDUIT   1400.62     0  02:29      1.78    1.68    1.00
  WS02004402WS02004403 CONDUIT   1416.91     0  01:59      1.80    2.04    1.00
  WS02004403WS02004404 CONDUIT   1401.30     0  02:28      1.78    1.01    1.00
  WS02004404WS02004405 CONDUIT   1401.55     0  02:22      1.78   13.73    1.00
  WS02004405WS02004406 CONDUIT   1400.67     0  02:31      1.78    2.76    1.00
  WS02004406WS02004407 CONDUIT   1400.55     0  02:29      1.88    0.63    1.00
  WS02004407WS02004409 CONDUIT   1400.37     0  02:15      2.17    0.50    1.00
  WS02004409WS02004410 CONDUIT   1400.43     0  02:14      1.78    1.81    1.00
  WS02004410WS02004411 CONDUIT   1400.81     0  02:24      1.78    1.91    1.00
  WS02004411WS02004412 CONDUIT   1400.38     0  02:25      1.78    1.99    1.00
  WS02004412WS02004413 CONDUIT   1400.52     0  02:31      1.78    0.94    1.00
  WS02004413WS02003067 CONDUIT   1400.59     0  02:31      2.13    0.60    0.78
  WS02006109WS02006110 CONDUIT   1178.90     0  01:17      2.35    2.27    1.00
  WS02006110WS02006113 CONDUIT   1179.09     0  01:17      2.36    1.07    1.00
  WS02006111WS02006112 CONDUIT   1121.53     0  02:59      2.23    0.53    1.00
  WS02006112WS02006115 CONDUIT   1400.76     0  02:29      1.78    0.83    1.00
  WS02006113WS02006111 CONDUIT   1183.31     0  01:18      2.71    1.42    1.00
  WS02006115WS02006116 CONDUIT   1400.95     0  02:29      1.78    1.80    1.00
  WS02006116WS02004401 CONDUIT   1400.57     0  02:29      1.78    1.93    1.00
  WS02006228WS02006109 CONDUIT   1288.41     0  02:10      2.56    5.63    1.00
  WS02006229WS02006228 CONDUIT   1289.29     0  01:59      2.56    4.27    1.00
  WS02006230WS02006229 CONDUIT   1016.54     0  02:10      2.64   22.62    1.00
  WS02006231WS02006230 CONDUIT    500.87     0  01:26      1.34    7.60    1.00
  WS02006232WS02006231 CONDUIT    495.50     0  01:26      1.29    1.04    1.00
  WS02006234WS02006232 CONDUIT    483.80     0  01:26      1.41    0.98    1.00
  WS02006235WS02006234 CONDUIT    455.34     0  01:26      1.39    4.80    1.00
  WS02006238WS02006235 CONDUIT    453.68     0  00:06      1.45    1.01    1.00
  WS02006239WS02006238 CONDUIT    461.65     0  00:06      1.26    1.48    1.00
  WS02006240WS02006239 CONDUIT    488.54     0  00:06      1.35    1.54    1.00
  WS02006242WS02006240 CONDUIT    568.63     0  00:06      1.58    2.26    1.00
  WS02006243WS02006242 CONDUIT    620.39     0  00:05      1.62    1.33    1.00
  WS02006245WS02006243 CONDUIT    665.04     0  01:16      1.84    1.97    1.00
  WS02006247WS02006245 CONDUIT    778.32     0  01:16      2.11    6.17    1.00
  WS02006248WS02006247 CONDUIT    831.33     0  01:15      2.16    1.81    1.00
  WS02006249WS02006248 CONDUIT    842.68     0  01:15      2.20    4.62    1.00
  WS02006251WS02006249 CONDUIT   1411.09     0  02:24      3.67    4.07    1.00
  WS02006252WS02006251 CONDUIT   1054.35     0  01:10    >50.00    3.87    1.00
  WS02006253WS02006251 CONDUIT   1901.19     0  02:24      4.94    5.70    1.00
  WS02006256WS02006235 CONDUIT    288.93     0  00:00      4.23    3.06    1.00
  WS02006280WS02006229 CONDUIT   2304.36     0  02:03      4.82    0.49    1.00
  WS02006284WS02006280 CONDUIT   2303.25     0  02:03      3.01    0.96    1.00
  WS02006287WS02006284 CONDUIT   2329.35     0  01:59      2.97    1.08    1.00
  WSF200WS02003060     CONDUIT   1405.18     0  02:14      2.80    0.31    0.53
  YS02001580YS02001583 CONDUIT    117.83     0  01:18      0.64    0.46    1.00
  YS02001583YS02001586 CONDUIT    151.55     0  01:18      0.63    0.23    1.00
  YS02001586YS02001590 CONDUIT    334.23     0  01:59      1.27    0.59    1.00
  YS02001590YS02001593 CONDUIT    326.12     0  01:26      1.15    2.05    1.00
  YS02001593YS02001596 CONDUIT    318.11     0  01:53      1.80    0.50    1.00
  YS02001596YS02001600 CONDUIT    318.53     0  01:26      1.30    0.62    1.00
  YS02001600YS02001601 CONDUIT    319.14     0  01:26      1.13    0.55    1.00
  YS02001601YS02001602 CONDUIT    549.73     0  01:17      1.94    1.99    1.00
  YS02001602YS02001605 CONDUIT    550.03     0  01:17      1.95   11.64    1.00
  YS02001605YS02001607 CONDUIT    550.20     0  01:17      1.95    3.02    1.00
  YS02001607YS02001610 CONDUIT    543.94     0  01:18      0.71    0.52    1.00
  YS02001610YS02001613 CONDUIT    622.41     0  01:44      0.79    0.72    1.00
  YS02001613YS02001616 CONDUIT    622.69     0  01:44      0.79    0.53    1.00
  YS02001616YS02001619 CONDUIT    622.23     0  01:44      0.79    1.08    1.00
  YS02001619YS02001622 CONDUIT   1075.96     0  01:59      1.61    1.59    1.00
  YS02001622YS02001625 CONDUIT   1053.73     0  02:04      1.34    0.56    1.00
  YS02001625YS02001629 CONDUIT    981.11     0  02:50      1.25    0.47    1.00
  YS02001629YS02163301 CONDUIT   1139.06     0  01:39      1.45    1.40    1.00
  YS02001633YS02163601 CONDUIT   1394.26     0  01:22      1.78    1.46    1.00
  YS02001641YS02001644 CONDUIT   1391.69     0  01:22      1.77    4.50    1.00
  YS02001644YS02001647 CONDUIT   1800.87     0  01:22      2.29    1.06    1.00
  YS02001647YS02001649 CONDUIT   1792.37     0  01:22      2.38    0.95    1.00
  YS02001649YS02001757 CONDUIT   2093.18     0  01:22      2.67    1.27    1.00
  YS02001652YS02001649 CONDUIT   2429.37     0  01:40      3.09    1.20    1.00
  YS02001655YS02001652 CONDUIT   2429.33     0  01:37      3.09    1.18    1.00
  YS02001658YS02001655 CONDUIT   2731.29     0  01:43      3.48    1.16    1.00
  YS02001661YS02001658 CONDUIT   2783.85     0  01:37      3.54    1.09    1.00
  YS02001664YS02001661 CONDUIT   2783.86     0  01:37      3.54    0.87    1.00
  YS02001745YS02001748 CONDUIT   3026.47     0  01:37      3.85    1.17    1.00
  YS02001748YS02001751 CONDUIT   2391.64     0  01:40      3.05    1.21    1.00
  YS02001751YS02001754 CONDUIT   2392.02     0  01:39      3.05    1.15    1.00
  YS02001754YS02001757 CONDUIT   2391.81     0  01:39      3.05    0.96    1.00
  YS02001757CaochengTiaoxuchi CONDUIT   3800.11     0  01:35      5.87    1.64    1.00
  YS02001759YS02001757 CONDUIT   1677.59     0  01:43      2.14    1.19    1.00
  YS02001762YS02001759 CONDUIT    824.83     0  02:09      1.05    0.95    1.00
  YS02001765YS02001762 CONDUIT    823.36     0  02:09      1.05    0.77    1.00
  YS02001767YS02001765 CONDUIT    822.90     0  02:09      1.05    1.04    1.00
  YS02001770YS02001767 CONDUIT    822.42     0  02:09      1.05    3.26    1.00
  YS02001774YS02001770 CONDUIT    852.14     0  01:54      1.08    0.54    1.00
  YS02001779YS02001774 CONDUIT    851.79     0  01:39      1.08    0.43    1.00
  YS02001783YS02001784 CONDUIT   1321.78     0  01:37      2.63    1.82    1.00
  YS02001784YS02001785 CONDUIT   1322.74     0  01:39      2.63    3.08    1.00
  YS02001786YS02001788 CONDUIT   1322.82     0  01:37      2.74    2.55    0.93
  YS02001788YS02001790 CONDUIT   1337.86     0  01:36      2.92    0.99    0.91
  YS02001790YS02001791 CONDUIT   1411.26     0  01:36      3.56    1.54    0.76
  YS02001791YS02001793 CONDUIT   1444.29     0  01:36      6.95    0.62    0.51
  YS02001793JiankangQianchi CONDUIT   1631.72     0  01:40      3.12    0.13    0.69
  YS02001882YS02001884 CONDUIT     53.06     0  01:19      0.32    0.06    1.00
  YS02001884YS02001887 CONDUIT     88.09     0  01:14      0.26    0.12    1.00
  YS02001887YS02001890 CONDUIT   2052.03     0  01:44      2.61    3.51    1.00
  YS02001890YS02001895 CONDUIT    584.23     0  01:26      0.74    0.27    1.00
  YS02001895YS02001898 CONDUIT    530.50     0  01:26      0.68    0.92    1.00
  YS02001898YS02001901 CONDUIT    537.14     0  01:59      0.68    0.35    1.00
  YS02001901YS02001904 CONDUIT    520.76     0  02:10      0.66    0.81    1.00
  YS02001904YS02001907 CONDUIT    521.40     0  01:59      0.66    0.18    1.00
  YS02001907YS02006553 CONDUIT   2160.72     0  01:39      2.40    2.54    1.00
  YS02001910YS02001907 CONDUIT   1993.02     0  01:37      2.54    1.12    1.00
  YS02001915YS02001910 CONDUIT   1993.21     0  01:54      2.54    0.99    1.00
  YS02001918YS02001915 CONDUIT   1221.69     0  01:49      1.56    0.67    1.00
  YS02001920YS02001918 CONDUIT   1681.99     0  01:43      2.14    1.63    1.00
  YS02001923YS02001920 CONDUIT   1679.20     0  01:44      2.14    0.75    1.00
  YS02001926YS02001923 CONDUIT   1679.43     0  01:39      2.14    2.40    1.00
  YS02001929YS02001926 CONDUIT   1679.28     0  01:44      2.14    0.80    1.00
  YS02006553YS02006556 CONDUIT   2161.04     0  01:39      2.75    1.85    1.00
  YS02006556YS02006558 CONDUIT   2161.40     0  01:41      2.75    1.71    1.00
  YS02006558YS02006561 CONDUIT   1321.87     0  01:37      4.68    2.92    1.00
  YS02006561YS02001783 CONDUIT   1321.83     0  01:37      2.63    0.68    1.00
  YS02163301YS02001633 CONDUIT   1138.90     0  01:38      1.45    1.07    1.00
  YS02163601YS02164001 CONDUIT   1393.90     0  01:22      1.77    1.24    1.00
  YS02164001YS02001641 CONDUIT   1392.65     0  01:21      1.77    1.90    1.00
  YSB1154YSB6556       CONDUIT    725.69     0  02:31      1.89    1.30    1.00
  YSB1171HS02004479    CONDUIT    375.46     0  01:49      0.75    0.25    1.00
  YSB1174YSB1171       CONDUIT    750.69     0  02:29      1.95    1.15    1.00
  YSB6556YSB1171       CONDUIT    639.84     0  02:26      1.66    0.66    1.00
  CC-R1                PUMP      3415.00     0  00:05              5.00
  CC-R2                PUMP      3415.00     0  00:05              5.00
  CC-S1                PUMP      1000.00     0  01:10              5.00
  CC-S2                PUMP      1000.00     0  00:05              5.00
  JK-R1                PUMP      5000.00     0  01:15              5.00
  JK-R2                PUMP      5000.00     0  01:15              5.00
  JK-S                 PUMP      1500.00     0  00:20              5.00
  XR-1                 PUMP        95.00     0  00:00              1.00
  XR-2                 PUMP        95.00     0  00:00              1.00
  XR-3                 PUMP        95.00     0  00:00              1.00
  XR-4                 PUMP        95.00     0  00:00              1.00
  
  
  ***************************
  Flow Classification Summary
  ***************************
  
  -------------------------------------------------------------------------------------
                      Adjusted    ---------- Fraction of Time in Flow Class ---------- 
                       /Actual         Up    Down  Sub   Sup   Up    Down  Norm  Inlet 
  Conduit               Length    Dry  Dry   Dry   Crit  Crit  Crit  Crit  Ltd   Ctrl  
  -------------------------------------------------------------------------------------
  1                       1.00   0.00  0.00  0.00  0.00  1.00  0.00  0.00  0.35  0.00
  HS02004478WS02006287    1.00   0.09  0.00  0.00  0.72  0.19  0.00  0.00  0.55  0.00
  HS02004479HS02004480    1.00   0.04  0.00  0.00  0.96  0.00  0.00  0.00  0.09  0.00
  HS02004480HS02004478    1.00   0.09  0.00  0.00  0.68  0.00  0.00  0.24  0.00  0.00
  HS02004770HS02004777    1.00   0.00  0.08  0.00  0.92  0.00  0.00  0.00  0.01  0.00
  HS02004777HS02004785    1.00   0.00  0.00  0.00  1.00  0.00  0.00  0.00  0.09  0.00
  HS02004785HS02004788    1.00   0.00  0.00  0.00  1.00  0.00  0.00  0.00  0.00  0.00
  HS02004788HS02004792    1.00   0.00  0.00  0.00  0.99  0.01  0.00  0.00  0.77  0.00
  HS02004792HS02004799    1.00   0.00  0.00  0.00  0.99  0.01  0.00  0.00  0.74  0.00
  HS02004799HS02004480    1.00   0.00  0.04  0.00  0.91  0.00  0.05  0.00  0.00  0.00
  HS02004802HS02004478    1.00   0.09  0.00  0.00  0.91  0.00  0.00  0.00  0.01  0.00
  HS02004807HS02004802    1.00   0.08  0.00  0.00  0.91  0.00  0.00  0.01  0.00  0.00
  HS02004817HS02004807    1.00   0.00  0.08  0.00  0.92  0.00  0.00  0.00  0.01  0.00
  HS02004817HS02004824    1.00   0.00  0.00  0.00  1.00  0.00  0.00  0.00  0.73  0.00
[...]
  WS02006284WS02006280    1.00   0.09  0.00  0.00  0.36  0.01  0.00  0.54  0.00  0.00
  WS02006287WS02006284    1.00   0.07  0.02  0.00  0.63  0.27  0.00  0.00  0.61  0.00
  WSF200WS02003060        1.00   0.00  0.06  0.00  0.45  0.49  0.00  0.00  0.59  0.00
  YS02001580YS02001583    1.00   0.12  0.36  0.00  0.51  0.00  0.00  0.00  0.61  0.00
  YS02001583YS02001586    1.00   0.28  0.15  0.00  0.56  0.00  0.00  0.00  0.61  0.00
  YS02001586YS02001590    1.00   0.08  0.00  0.00  0.66  0.02  0.00  0.24  0.25  0.00
  YS02001590YS02001593    1.00   0.08  0.00  0.00  0.38  0.00  0.54  0.00  0.00  0.00
  YS02001593YS02001596    1.00   0.09  0.00  0.00  0.39  0.01  0.00  0.52  0.01  0.00
  YS02001596YS02001600    1.00   0.09  0.00  0.00  0.44  0.01  0.00  0.46  0.02  0.00
  YS02001600YS02001601    1.00   0.08  0.00  0.00  0.91  0.00  0.00  0.00  0.55  0.00
  YS02001601YS02001602    1.00   0.08  0.00  0.00  0.91  0.00  0.00  0.00  0.00  0.00
  YS02001602YS02001605    1.00   0.09  0.00  0.00  0.91  0.00  0.00  0.00  0.00  0.00
  YS02001605YS02001607    1.00   0.09  0.00  0.00  0.91  0.00  0.00  0.00  0.00  0.00
  YS02001607YS02001610    1.00   0.09  0.00  0.00  0.91  0.00  0.00  0.00  0.00  0.00
  YS02001610YS02001613    1.00   0.09  0.00  0.00  0.91  0.00  0.00  0.00  0.00  0.00
  YS02001613YS02001616    1.00   0.08  0.00  0.00  0.92  0.00  0.00  0.00  0.00  0.00
  YS02001616YS02001619    1.00   0.08  0.00  0.00  0.92  0.00  0.00  0.00  0.00  0.00
  YS02001619YS02001622    1.00   0.08  0.00  0.00  0.91  0.01  0.00  0.00  0.31  0.00
  YS02001622YS02001625    1.00   0.08  0.00  0.00  0.91  0.00  0.00  0.00  0.01  0.00
  YS02001625YS02001629    1.00   0.08  0.01  0.00  0.40  0.00  0.51  0.00  0.00  0.00
  YS02001629YS02163301    1.00   0.09  0.00  0.00  0.91  0.00  0.00  0.00  0.00  0.00
  YS02001633YS02163601    1.00   0.00  0.01  0.00  0.99  0.00  0.00  0.00  0.13  0.00
  YS02001641YS02001644    1.00   0.00  0.01  0.00  0.99  0.00  0.00  0.00  0.00  0.00
  YS02001644YS02001647    1.00   0.00  0.09  0.00  0.91  0.00  0.00  0.00  0.00  0.00
  YS02001647YS02001649    1.00   0.00  0.09  0.00  0.60  0.31  0.00  0.00  0.55  0.00
  YS02001649YS02001757    1.00   0.00  0.00  0.00  0.67  0.33  0.00  0.00  0.50  0.00
  YS02001652YS02001649    1.00   0.00  0.00  0.00  0.99  0.01  0.00  0.00  0.68  0.00
  YS02001655YS02001652    1.00   0.00  0.00  0.00  0.43  0.01  0.00  0.55  0.05  0.00
  YS02001658YS02001655    1.00   0.00  0.09  0.00  0.70  0.22  0.00  0.00  0.66  0.00
  YS02001661YS02001658    1.00   0.09  0.00  0.00  0.51  0.40  0.00  0.00  0.68  0.00
  YS02001664YS02001661    1.00   0.08  0.00  0.00  0.70  0.22  0.00  0.00  0.78  0.00
  YS02001745YS02001748    1.00   0.00  0.00  0.00  0.21  0.03  0.00  0.76  0.05  0.00
  YS02001748YS02001751    1.00   0.00  0.00  0.00  0.81  0.19  0.00  0.00  0.77  0.00
  YS02001751YS02001754    1.00   0.00  0.00  0.00  0.37  0.01  0.00  0.62  0.03  0.00
  YS02001754YS02001757    1.00   0.00  0.00  0.00  1.00  0.00  0.00  0.00  0.75  0.00
  YS02001757CaochengTiaoxuchi    1.00   0.00  0.00  0.00  0.61  0.39  0.00  0.00  0.79  0.00
  YS02001759YS02001757    1.00   0.00  0.00  0.00  0.99  0.01  0.00  0.00  0.58  0.00
  YS02001762YS02001759    1.00   0.00  0.00  0.00  1.00  0.00  0.00  0.00  0.02  0.00
  YS02001765YS02001762    1.00   0.00  0.00  0.00  1.00  0.00  0.00  0.00  0.68  0.00
  YS02001767YS02001765    1.00   0.00  0.00  0.00  1.00  0.00  0.00  0.00  0.00  0.00
  YS02001770YS02001767    1.00   0.00  0.00  0.00  1.00  0.00  0.00  0.00  0.00  0.00
  YS02001774YS02001770    1.00   0.00  0.08  0.00  0.77  0.00  0.15  0.00  0.00  0.00
  YS02001779YS02001774    1.00   0.00  0.00  0.00  1.00  0.00  0.00  0.00  0.73  0.00
  YS02001783YS02001784    1.00   0.00  0.09  0.00  0.91  0.00  0.00  0.00  0.55  0.00
  YS02001784YS02001785    1.00   0.00  0.00  0.00  1.00  0.00  0.00  0.00  0.13  0.00
  YS02001786YS02001788    1.00   0.00  0.00  0.00  0.79  0.21  0.00  0.00  0.00  0.00
  YS02001788YS02001790    1.00   0.00  0.00  0.00  0.23  0.77  0.00  0.00  0.75  0.00
  YS02001790YS02001791    1.00   0.00  0.00  0.00  0.01  0.99  0.00  0.00  0.09  0.00
  YS02001791YS02001793    1.00   0.00  0.00  0.00  0.00  1.00  0.00  0.00  0.03  0.00
  YS02001793JiankangQianchi    1.00   0.00  0.00  0.00  0.83  0.17  0.00  0.00  0.91  0.00
  YS02001882YS02001884    1.00   0.09  0.00  0.00  0.91  0.00  0.00  0.00  0.00  0.00
  YS02001884YS02001887    1.00   0.05  0.03  0.00  0.92  0.00  0.00  0.00  0.00  0.00
  YS02001887YS02001890    1.00   0.00  0.00  0.00  0.96  0.00  0.03  0.00  0.00  0.00
  YS02001890YS02001895    1.00   0.00  0.09  0.00  0.91  0.00  0.00  0.00  0.00  0.00
  YS02001895YS02001898    1.00   0.09  0.00  0.00  0.91  0.00  0.01  0.00  0.00  0.00
  YS02001898YS02001901    1.00   0.09  0.00  0.00  0.91  0.00  0.00  0.00  0.00  0.00
  YS02001901YS02001904    1.00   0.09  0.00  0.00  0.91  0.00  0.00  0.00  0.00  0.00
  YS02001904YS02001907    1.00   0.00  0.09  0.00  0.91  0.00  0.00  0.00  0.00  0.00
  YS02001907YS02006553    1.00   0.00  0.02  0.00  0.97  0.00  0.00  0.00  0.00  0.00
  YS02001910YS02001907    1.00   0.00  0.00  0.00  0.97  0.00  0.00  0.03  0.11  0.00
  YS02001915YS02001910    1.00   0.00  0.00  0.00  0.98  0.02  0.00  0.00  0.11  0.00
  YS02001918YS02001915    1.00   0.00  0.00  0.00  0.97  0.02  0.00  0.00  0.64  0.00
  YS02001920YS02001918    1.00   0.00  0.00  0.00  1.00  0.00  0.00  0.00  0.00  0.00
  YS02001923YS02001920    1.00   0.00  0.00  0.00  1.00  0.00  0.00  0.00  0.78  0.00
  YS02001926YS02001923    1.00   0.00  0.06  0.00  0.30  0.00  0.64  0.00  0.00  0.00
  YS02001929YS02001926    1.00   0.00  0.08  0.00  0.92  0.00  0.00  0.00  0.69  0.00
  YS02006553YS02006556    1.00   0.01  0.00  0.00  0.99  0.00  0.00  0.00  0.03  0.00
  YS02006556YS02006558    1.00   0.00  0.00  0.00  1.00  0.00  0.00  0.00  0.00  0.00
  YS02006558YS02006561    1.00   0.09  0.00  0.00  0.28  0.62  0.00  0.00  0.11  0.00
  YS02006561YS02001783    1.00   0.09  0.00  0.00  0.35  0.56  0.00  0.00  0.61  0.00
  YS02163301YS02001633    1.00   0.00  0.09  0.00  0.91  0.00  0.00  0.00  0.00  0.00
  YS02163601YS02164001    1.00   0.00  0.06  0.00  0.94  0.00  0.00  0.00  0.00  0.00
  YS02164001YS02001641    1.00   0.01  0.06  0.00  0.94  0.00  0.00  0.00  0.05  0.00
  YSB1154YSB6556          1.00   0.08  0.00  0.00  0.92  0.00  0.00  0.00  0.01  0.00
  YSB1171HS02004479       1.00   0.04  0.00  0.00  0.95  0.00  0.00  0.01  0.09  0.00
  YSB1174YSB1171          1.00   0.05  0.02  0.00  0.93  0.00  0.00  0.00  0.00  0.00
  YSB6556YSB1171          1.00   0.04  0.04  0.00  0.92  0.00  0.00  0.00  0.00  0.00
  
  
  *************************
  Conduit Surcharge Summary
  *************************
  
  ----------------------------------------------------------------------------
                                                           Hours        Hours 
                         --------- Hours Full --------   Above Full   Capacity
  Conduit                Both Ends  Upstream  Dnstream   Normal Flow   Limited
  ----------------------------------------------------------------------------
  HS02004478WS02006287        1.49      1.49      1.68      0.01         0.01
  HS02004479HS02004480        1.67      1.67      1.71      0.01         0.01
  HS02004480HS02004478        1.59      1.67      1.59      2.26         1.59
  HS02004770HS02004777        1.56      1.56      1.57      0.14         0.12
  HS02004777HS02004785        1.51      1.51      1.57      0.01         0.01
  HS02004785HS02004788        1.50      1.51      1.50      1.94         1.03
  HS02004788HS02004792        1.50      1.50      1.63      0.01         0.01
  HS02004792HS02004799        1.63      1.63      1.79      0.01         0.01
  HS02004799HS02004480        1.67      1.67      1.79      1.86         0.01
  HS02004802HS02004478        1.60      1.60      1.70      0.72         0.01
  HS02004807HS02004802        1.65      1.65      1.69      1.02         1.03
  HS02004817HS02004807        1.65      1.65      2.03      0.01         0.01
  HS02004817HS02004824        1.51      1.51      2.03      0.01         0.01
  HS02004824HS02004830        1.48      1.48      1.51      0.11         0.11
  HS02004830HS02004837        1.42      1.42      1.48      0.03         0.03
  HS02004837HS02004842        1.42      1.42      1.57      0.01         0.01
  HS02004842HS02004848        1.41      1.41      1.57      0.01         0.01
  HS02004848HS02004852        1.41      1.41      1.44      0.01         0.08
  HS02004852HS02004856        1.44      1.44      1.46      0.17         0.12
  HS02004856HS02004862        1.41      1.41      1.46      0.01         0.01
  HS02004862HS02004870        1.46      1.46      1.47      0.63         0.62
  HS02004870HS02004876        1.47      1.47      1.53      0.01         0.01
  HS02004876HS02004881        1.49      1.53      1.49      2.15         1.49
  HS02004881HS02006253        1.49      1.49      1.96      0.01         0.01
  HS02004901HS02004770        1.56      1.56      1.56      0.90         0.01
  WS02003072WS02003073        0.01      0.01      0.01      2.67         0.01
  WS02004401WS02004402        2.10      2.11      2.12      2.01         1.98
  WS02004402WS02004403        2.12      2.12      2.12      2.11         2.09
  WS02004403WS02004404        2.12      2.12      2.21      0.34         0.29
  WS02004404WS02004405        2.19      2.21      2.19      3.21         2.19
  WS02004405WS02004406        2.16      2.19      2.16      2.31         2.16
  WS02004406WS02004407        0.44      0.44      2.16      0.01         0.01
  WS02004407WS02004409        0.44      0.44      1.85      0.01         0.01
  WS02004409WS02004410        1.84      1.85      1.84      2.04         1.84
  WS02004410WS02004411        1.83      1.84      1.83      2.08         1.83
  WS02004411WS02004412        1.78      1.83      1.78      2.10         1.78
  WS02004412WS02004413        1.78      1.78      1.97      0.01         0.01
  WS02004413WS02003067        0.01      0.01      1.97      0.01         0.01
  WS02006109WS02006110        2.28      2.28      2.47      2.28         0.01
  WS02006110WS02006113        1.97      1.97      2.46      0.42         0.01
  WS02006111WS02006112        1.96      1.96      2.58      0.01         0.01
  WS02006112WS02006115        2.03      2.03      2.33      0.01         0.01
  WS02006113WS02006111        1.97      1.97      1.97      2.01         1.84
  WS02006115WS02006116        2.04      2.04      2.04      2.05         2.02
  WS02006116WS02004401        2.10      2.10      2.11      2.10         2.08
  WS02006228WS02006109        2.42      2.46      2.42      2.73         2.42
  WS02006229WS02006228        2.42      2.43      2.42      2.56         2.41
  WS02006230WS02006229        2.49      2.49      2.49      3.48         0.51
  WS02006231WS02006230        2.17      2.17      2.20      2.96         1.93
  WS02006232WS02006231        2.18      2.18      2.28      0.01         0.38
  WS02006234WS02006232        2.20      2.20      2.28      0.01         0.01
  WS02006235WS02006234        2.17      2.17      2.19      2.69         1.90
  WS02006238WS02006235        2.20      2.20      2.22      0.01         0.82
  WS02006239WS02006238        2.18      2.19      2.20      1.86         0.02
  WS02006240WS02006239        2.14      2.15      2.16      1.86         0.02
  WS02006242WS02006240        2.14      2.14      2.19      1.97         1.86
  WS02006243WS02006242        2.12      2.12      2.16      0.01         0.01
  WS02006245WS02006243        2.10      2.11      2.11      0.08         0.01
  WS02006247WS02006245        2.09      2.12      2.09      2.41         0.15
  WS02006248WS02006247        2.08      2.08      2.10      0.03         0.02
  WS02006249WS02006248        2.06      2.07      2.08      0.26         0.02
  WS02006251WS02006249        2.06      2.09      2.08      1.99         1.86
  WS02006252WS02006251        2.06      2.89      2.12      1.07         0.58
  WS02006253WS02006251        2.06      2.09      2.09      1.84         0.06
  WS02006256WS02006235        2.77      2.81      5.86      0.06         0.01
  WS02006280WS02006229        1.82      1.82      1.88      0.01         0.01
  WS02006284WS02006280        1.71      1.71      1.79      0.01         0.01
  WS02006287WS02006284        1.59      1.59      1.72      1.11         1.11
  YS02001580YS02001583        1.73      1.73      1.74      0.01         0.01
  YS02001583YS02001586        1.73      1.73      1.79      0.01         0.01
  YS02001586YS02001590        1.79      1.79      1.84      0.01         0.01
  YS02001590YS02001593        1.84      1.84      1.85      1.85         0.01
  YS02001593YS02001596        1.85      1.85      1.91      0.01         0.01
  YS02001596YS02001600        1.93      1.93      1.97      0.01         0.01
  YS02001600YS02001601        2.00      2.00      2.14      0.01         0.01
  YS02001601YS02001602        2.08      2.08      2.16      1.99         0.01
  YS02001602YS02001605        2.06      2.06      2.08      2.66         0.01
  YS02001605YS02001607        2.03      2.06      2.03      2.12         2.03
  YS02001607YS02001610        1.78      1.78      1.79      0.01         0.01
  YS02001610YS02001613        1.77      1.77      1.79      0.01         0.01
  YS02001613YS02001616        1.75      1.75      1.77      0.01         0.01
  YS02001616YS02001619        1.74      1.74      1.75      0.63         0.44
  YS02001619YS02001622        1.73      1.74      1.73      1.85         1.71
  YS02001622YS02001625        1.73      1.73      1.85      0.01         0.01
  YS02001625YS02001629        1.69      1.69      1.85      0.01         0.01
  YS02001629YS02163301        1.83      1.83      1.84      0.95         0.52
  YS02001633YS02163601        1.85      1.85      1.86      0.80         0.81
  YS02001641YS02001644        1.74      1.78      1.74      2.16         1.73
  YS02001644YS02001647        1.38      1.38      1.74      0.05         0.01
  YS02001647YS02001649        1.38      1.38      1.45      0.01         0.01
  YS02001649YS02001757        1.42      1.45      1.42      1.06         0.78
  YS02001652YS02001649        1.26      1.26      1.45      0.24         0.24
  YS02001655YS02001652        1.02      1.02      1.22      0.23         0.23
  YS02001658YS02001655        0.83      0.83      1.02      0.19         0.19
  YS02001661YS02001658        0.55      0.55      0.83      0.17         0.17
  YS02001664YS02001661        0.34      0.34      0.60      0.01         0.01
  YS02001745YS02001748        0.28      0.28      0.65      0.05         0.05
  YS02001748YS02001751        0.73      0.73      0.88      0.11         0.11
  YS02001751YS02001754        0.88      0.88      1.02      0.10         0.10
  YS02001754YS02001757        1.10      1.10      1.42      0.01         0.01
  YS02001757CaochengTiaoxuchi        0.10      1.42      0.10      1.67         0.10
  YS02001759YS02001757        1.32      1.32      1.42      0.44         0.46
  YS02001762YS02001759        1.29      1.29      1.32      0.01         0.04
  YS02001765YS02001762        1.25      1.25      1.29      0.01         0.01
  YS02001767YS02001765        1.22      1.22      1.25      0.03         0.10
  YS02001770YS02001767        1.22      1.23      1.22      1.68         0.93
  YS02001774YS02001770        1.21      1.21      1.30      0.01         0.01
  YS02001779YS02001774        1.10      1.10      1.30      0.01         0.01
  YS02001783YS02001784        1.63      1.67      1.63      1.78         1.63
  YS02001784YS02001785        1.43      1.63      1.43      1.88         1.43
  YS02001786YS02001788        0.01      1.44      0.01      1.84         0.01
  YS02001790YS02001791        0.01      0.01      0.01      1.60         0.01
  YS02001793JiankangQianchi        0.01      0.01      4.87      0.01         0.01
  YS02001882YS02001884        1.56      1.56      1.59      0.01         0.01
  YS02001884YS02001887        1.63      1.63      1.66      0.01         0.01
  YS02001887YS02001890        1.68      1.68      1.69      0.68         0.01
  YS02001890YS02001895        1.54      1.54      1.71      0.01         0.01
  YS02001895YS02001898        1.52      1.52      1.54      0.01         0.01
  YS02001898YS02001901        1.55      1.55      1.63      0.01         0.01
  YS02001901YS02001904        1.61      1.61      1.63      0.01         0.01
  YS02001904YS02001907        1.61      1.61      1.83      0.01         0.01
  YS02001907YS02006553        1.88      1.88      1.91      0.29         0.29
  YS02001910YS02001907        1.71      1.71      1.82      0.48         0.48
  YS02001915YS02001910        1.56      1.56      1.71      0.01         0.06
  YS02001918YS02001915        1.40      1.40      1.56      0.01         0.01
  YS02001920YS02001918        1.40      1.40      1.43      0.29         0.01
  YS02001923YS02001920        1.32      1.32      1.43      0.01         0.01
  YS02001926YS02001923        0.67      0.67      0.73      0.43         0.01
  YS02001929YS02001926        0.51      0.51      0.73      0.01         0.01
  YS02006553YS02006556        1.77      1.77      1.83      0.24         0.24
  YS02006556YS02006558        1.81      1.81      1.84      0.23         0.01
  YS02006558YS02006561        1.46      1.76      1.46      1.87         1.46
  YS02006561YS02001783        1.35      1.35      1.67      0.01         0.01
  YS02163301YS02001633        1.84      1.84      1.86      0.32         0.03
  YS02163601YS02164001        1.79      1.79      1.86      0.57         0.01
  YS02164001YS02001641        1.78      1.79      1.78      1.44         1.33
  YSB1154YSB6556              1.76      1.76      1.88      0.39         0.01
  YSB1171HS02004479           1.63      1.63      1.88      0.01         0.01
  YSB1174YSB1171              1.83      1.83      1.98      0.26         0.26
  YSB6556YSB1171              1.76      1.76      2.05      0.01         0.01
  
  
  ***************
  Pumping Summary
  ***************
  
  ---------------------------------------------------------------------------------------------------------
                                                  Min       Avg       Max     Total     Power    % Time Off
                        Percent   Number of      Flow      Flow      Flow    Volume     Usage    Pump Curve
  Pump                 Utilized   Start-Ups       LPS       LPS       LPS  10^6 ltr     Kw-hr    Low   High
  ---------------------------------------------------------------------------------------------------------
  CC-R1                    2.51           6      0.00   2665.37   3415.00     1.647     27.25    0.0  100.0
  CC-R2                   14.41          37      0.00   3307.35   3415.00    13.352    224.71    0.0   95.1
  CC-S1                   16.43          35      0.00    839.13   1000.00     3.846     37.11    0.0    0.0
  CC-S2                   16.00          25      0.00    949.14   1000.00     4.258     40.99    0.0    0.0
  JK-R1                    4.47          25      0.00   1517.78   5000.00     1.877     20.55    0.0    0.0
  JK-R2                    2.72          27      0.00   4800.48   5000.00     3.722     33.25    0.0    0.0
  JK-S                    18.91          24      0.00    439.99   1500.00     2.442     38.05    0.0    0.0
  XR-1                    97.91           2      0.00     95.00     95.00     2.679      9.61    0.0    0.0
  XR-2                    93.94           2      0.00     95.00     95.00     2.570      8.77    0.0    0.0
  XR-3                     0.00           1      0.00     95.00     95.00     0.000      0.00    0.0    0.0
  XR-4                     0.00           1      0.00     95.00     95.00     0.000      0.00    0.0    0.0
  

  Analysis begun on:  Wed Jul 12 21:33:21 2023
  Analysis ended on:  Wed Jul 12 21:33:41 2023
  Total elapsed time: 00:00:20