
  OWA STORM WATER MANAGEMENT MODEL - VERSION v5.1.14 (OWA 2022-07-31)
  --------------------------------------------------------------

  WARNING 04: minimum elevation drop used for Conduit WS02004404WS02004405
  WARNING 03: negative offset ignored for Link YS02001904YS02001907
  
  *********************************************************
  NOTE: The summary statistics displayed in this report are
  based on results found at every computational time step,  
  not just on results from each reporting time step.
  *********************************************************
  
  ****************
  Analysis Options
  ****************
  Flow Units ............... LPS
  Process Models:
    Rainfall/Runoff ........ YES
    RDII ................... NO
    Snowmelt ............... NO
    Groundwater ............ NO
    Flow Routing ........... YES
    Ponding Allowed ........ NO
    Water Quality .......... NO
  Infiltration Method ...... HORTON
  Flow Routing Method ...... DYNWAVE
  Surcharge Method ......... EXTRAN
  Starting Date ............ 08/28/2015 08:00:00
  Ending Date .............. 08/28/2015 16:00:00
  Antecedent Dry Days ...... 8.0
  Report Time Step ......... 00:01:00
  Wet Time Step ............ 00:01:00
  Dry Time Step ............ 00:01:00
  Routing Time Step ........ 30.00 sec
  Variable Time Step ....... YES
  Maximum Trials ........... 8
  Number of Threads ........ 1
  Head Tolerance ........... 0.001500 m
  
  
  **************************        Volume         Depth
  Runoff Quantity Continuity     hectare-m            mm
  **************************     ---------       -------
  Initial LID Storage ......         0.072         1.184
  Total Precipitation ......         3.319        54.785
  Evaporation Loss .........         0.000         0.000
  Infiltration Loss ........         0.203         3.345
  Surface Runoff ...........         2.510        41.427
  Final Storage ............         0.679        11.213
  Continuity Error (%) .....        -0.030
  
  
  **************************        Volume        Volume
  Flow Routing Continuity        hectare-m      10^6 ltr
  **************************     ---------     ---------
  Dry Weather Inflow .......         0.630         6.296
  Wet Weather Inflow .......         2.509        25.095
  Groundwater Inflow .......         0.000         0.000
  RDII Inflow ..............         0.000         0.000
  External Inflow ..........         0.105         1.045
  External Outflow .........         2.385        23.850
  Flooding Loss ............         0.852         8.515
  Evaporation Loss .........         0.000         0.000
  Exfiltration Loss ........         0.000         0.000
  Initial Stored Volume ....         0.303         3.031
  Final Stored Volume ......         0.321         3.211
  Continuity Error (%) .....        -0.307
  
  
  *************************
  Highest Continuity Errors
  *************************
  Node WS02006256 (-10.38%)
  Node YS02001583 (-5.79%)
  Node YS02001884 (5.31%)
  Node HS02004842 (1.72%)
  Node YS02001774 (1.51%)
  
  
  ***************************
  Time-Step Critical Elements
  ***************************
  Link WS02006280WS02006229 (50.39%)
  Link WS02006252WS02006251 (18.18%)
  Link WS02006238WS02006235 (9.22%)
  Link YS02001791YS02001793 (5.46%)
  Link WS02004404WS02004405 (5.30%)
  
  
  ********************************
  Highest Flow Instability Indexes
  ********************************
  Link WS02006113WS02006111 (22)
  Link WS02006238WS02006235 (19)
  Link WS02006256WS02006235 (19)
  Link WS02004404WS02004405 (18)
  Link WS02006229WS02006228 (18)
  
  
  *************************
  Routing Time Step Summary
  *************************
  Minimum Time Step           :     0.01 sec
  Average Time Step           :     2.47 sec
  Maximum Time Step           :     6.46 sec
  Percent in Steady State     :    -0.00
  Average Iterations per Step :     3.30
  Percent Not Converging      :    11.96
  
  
  ***************************
  Subcatchment Runoff Summary
  ***************************
  
  ------------------------------------------------------------------------------------------------------------------------------
                            Total      Total      Total      Total     Imperv       Perv      Total       Total     Peak  Runoff
                           Precip      Runon       Evap      Infil     Runoff     Runoff     Runoff      Runoff   Runoff   Coeff
  Subcatchment                 mm         mm         mm         mm         mm         mm         mm    10^6 ltr      LPS
  ------------------------------------------------------------------------------------------------------------------------------
  sub0                      54.78       0.00       0.00       1.00      49.70       2.83      52.53        0.04    27.06   0.959
  sub1                      54.78       0.00       0.00       1.52      42.59       3.89      46.47        0.31   168.57   0.848
  sub10                     54.78       0.00       0.00       0.97      39.91       2.59      42.51        0.47   265.05   0.776
  sub11                     54.78       0.00       0.00       0.88      37.09       2.42      39.52        0.46   273.43   0.721
  sub12                     54.78       0.00       0.00       1.55      37.71       4.23      41.94        0.37   231.24   0.766
  sub14                     54.78       0.00       0.00       0.96      35.13       2.60      37.73        0.36   211.49   0.689
  sub15                     54.78       0.00       0.00       4.33      31.58       9.56      41.14        0.71   373.46   0.751
  sub16                     54.78       0.00       0.00       4.61      30.81      10.95      41.76        0.44   252.87   0.762
  sub17                     54.78       0.00       0.00       4.93      34.00      11.48      45.48        0.39   220.06   0.830
  sub2                      54.78       0.00       0.00       6.80      31.13      11.98      43.10        0.40   177.37   0.787
  sub22                     54.78       0.00       0.00       7.65      29.48      15.16      44.64        2.82  1371.37   0.815
  sub23                     54.78       0.00       0.00       5.77      30.36      12.52      42.88        2.05  1081.37   0.783
  sub3                      54.78       0.00       0.00       7.26      30.82      11.35      42.17        0.95   383.04   0.770
  sub4                      54.78       0.00       0.00       1.64      41.93       3.69      45.62        0.95   416.52   0.833
  sub5                      54.78       0.00       0.00       0.86      41.20       2.32      43.52        0.49   273.18   0.794
  sub60                     54.78       0.00       0.00       1.38      36.28       3.70      39.97        0.53   315.64   0.730
  sub61                     54.78       0.00       0.00       2.12      36.25       5.50      41.75        0.77   460.14   0.762
  sub62                     54.78       0.00       0.00       0.94      38.64       2.51      41.15        1.13   633.59   0.751
  sub63                     54.78       0.00       0.00       3.86      31.05       9.14      40.19        0.91   519.73   0.734
  sub64                     54.78       0.00       0.00       1.86      35.35       4.55      39.89        0.96   514.27   0.728
  sub65                     54.78       0.00       0.00       1.70      38.15       4.15      42.30        1.16   603.20   0.772
  sub66                     54.78       0.00       0.00       4.48      30.01       8.12      38.13        1.78   778.88   0.696
  sub67                     54.78       0.00       0.00       0.93      39.62       2.60      42.22        0.79   488.74   0.771
  sub68                     54.78       0.00       0.00       1.62      34.99       4.22      39.21        1.08   629.96   0.716
  sub69                     54.78       0.00       0.00       1.48      36.82       5.03      41.86        1.55   781.49   0.764
  sub7                      54.78       0.00       0.00       1.02      37.65       2.80      40.45        0.14    82.32   0.738
  sub70                     54.78       0.00       0.00       4.91      29.49      10.34      39.83        1.15   452.49   0.727
  sub71                     54.78       0.00       0.00       0.86      35.10       2.27      37.37        0.98   521.50   0.682
  sub72                     54.78       0.00       0.00       0.82      37.91       2.11      40.02        0.55   270.40   0.730
  sub8                      54.78       0.00       0.00       1.00      36.59       2.71      39.30        0.25   148.54   0.717
  sub9                      54.78       0.00       0.00       0.97      35.47       2.63      38.10        0.18   108.24   0.695
  

  ***********************
  LID Performance Summary
  ***********************

  --------------------------------------------------------------------------------------------------------------------
                                         Total      Evap     Infil   Surface    Drain    Initial     Final  Continuity
                                        Inflow      Loss      Loss   Outflow   Outflow   Storage   Storage       Error
  Subcatchment      LID Control             mm        mm        mm        mm        mm        mm        mm           %
  --------------------------------------------------------------------------------------------------------------------
  sub1              GreenRoof            54.78      0.00      0.00      0.00      0.00      7.05     61.89       -0.08
  sub10             GreenRoof            54.78      0.00      0.00      0.00      0.00      7.05     61.89       -0.08
  sub11             GreenRoof            54.78      0.00      0.00      0.00      0.00      7.05     61.89       -0.08
  sub12             GreenRoof            54.78      0.00      0.00      0.00      0.00      7.05     61.89       -0.08
  sub14             GreenRoof            54.78      0.00      0.00      0.00      0.00      7.05     61.89       -0.08
  sub15             GreenRoof            54.78      0.00      0.00      0.00      0.00      7.05     61.89       -0.08
  sub16             GreenRoof            54.78      0.00      0.00      0.00      0.00      7.05     61.89       -0.08
  sub17             GreenRoof            54.78      0.00      0.00      0.00      0.00      7.05     61.89       -0.08
  sub2              GreenRoof            54.78      0.00      0.00      0.00      0.00      7.05     61.89       -0.08
  sub22             GreenRoof            54.78      0.00      0.00      0.00      0.00      7.05     61.89       -0.08
  sub23             GreenRoof            54.78      0.00      0.00      0.00      0.00      7.05     61.89       -0.08
  sub3              GreenRoof            54.78      0.00      0.00      0.00      0.00      7.05     61.89       -0.08
  sub4              GreenRoof            54.78      0.00      0.00      0.00      0.00      7.05     61.89       -0.08
  sub5              GreenRoof            54.78      0.00      0.00      0.00      0.00      7.05     61.89       -0.08
  sub60             GreenRoof            54.78      0.00      0.00      0.00      0.00      7.05     61.89       -0.08
  sub61             GreenRoof            54.78      0.00      0.00      0.00      0.00      7.05     61.89       -0.08
  sub62             GreenRoof            54.78      0.00      0.00      0.00      0.00      7.05     61.89       -0.08
  sub63             GreenRoof            54.78      0.00      0.00      0.00      0.00      7.05     61.89       -0.08
  sub64             GreenRoof            54.78      0.00      0.00      0.00      0.00      7.05     61.89       -0.08
  sub65             GreenRoof            54.78      0.00      0.00      0.00      0.00      7.05     61.89       -0.08
  sub66             GreenRoof            54.78      0.00      0.00      0.00      0.00      7.05     61.89       -0.08
  sub67             GreenRoof            54.78      0.00      0.00      0.00      0.00      7.05     61.89       -0.08
  sub68             GreenRoof            54.78      0.00      0.00      0.00      0.00      7.05     61.89       -0.08
  sub69             GreenRoof            54.78      0.00      0.00      0.00      0.00      7.05     61.89       -0.08
  sub7              GreenRoof            54.78      0.00      0.00      0.00      0.00      7.05     61.89       -0.08
  sub70             GreenRoof            54.78      0.00      0.00      0.00      0.00      7.05     61.89       -0.08
  sub71             GreenRoof            54.78      0.00      0.00      0.00      0.00      7.05     61.89       -0.08
  sub72             GreenRoof            54.78      0.00      0.00      0.00      0.00      7.05     61.89       -0.08
  sub8              GreenRoof            54.78      0.00      0.00      0.00      0.00      7.05     61.89       -0.08
  sub9              GreenRoof            54.78      0.00      0.00      0.00      0.00      7.05     61.89       -0.08
  
  ******************
  Node Depth Summary
  ******************
  
  ---------------------------------------------------------------------------------
                                 Average  Maximum  Maximum  Time of Max    Reported
                                   Depth    Depth      HGL   Occurrence   Max Depth
  Node                 Type       Meters   Meters   Meters  days hr:min      Meters
  ---------------------------------------------------------------------------------
  HS02004478           JUNCTION     0.22     1.53    10.76     0  02:00        1.53
  HS02004479           JUNCTION     0.30     1.68    10.88     0  02:00        1.66
  HS02004480           JUNCTION     0.26     1.65    10.89     0  02:00        1.63
  HS02004770           JUNCTION     0.27     1.42    11.25     0  01:57        1.42
  HS02004777           JUNCTION     0.29     1.48    11.28     0  01:57        1.45
  HS02004785           JUNCTION     0.18     1.49    11.39     0  01:57        1.35
  HS02004788           JUNCTION     0.15     1.42    11.32     0  01:57        1.35
  HS02004792           JUNCTION     0.21     1.60    11.12     0  01:57        1.60
  HS02004799           JUNCTION     0.33     1.76    10.97     0  02:00        1.76
  HS02004802           JUNCTION     0.31     1.73    10.86     0  02:00        1.70
  HS02004807           JUNCTION     0.28     1.92    11.09     0  02:00        1.78
  HS02004817           JUNCTION     0.58     2.44    11.29     0  02:00        2.18
  HS02004824           JUNCTION     0.15     2.01    11.41     0  02:00        1.70
  HS02004830           JUNCTION     0.15     2.03    11.50     0  02:00        1.67
  HS02004837           JUNCTION     0.12     2.04    11.62     0  02:00        1.60
  HS02004842           JUNCTION     0.41     2.22    11.49     0  02:00        1.92
  HS02004848           JUNCTION     0.10     2.07    11.67     0  02:00        1.60
  HS02004852           JUNCTION     0.11     2.12    11.63     0  02:00        1.64
  HS02004856           JUNCTION     0.17     2.07    11.50     0  02:00        1.68
  HS02004862           JUNCTION     0.12     2.00    11.38     0  02:00        1.64
  HS02004870           JUNCTION     0.11     1.95    11.23     0  02:00        1.62
  HS02004876           JUNCTION     0.17     2.06    11.09     0  02:00        1.72
  HS02004881           JUNCTION     0.10     2.15    11.18     0  02:00        1.51
  HS02004901           JUNCTION     0.27     1.42    11.24     0  01:57        1.42
  WS02001211           JUNCTION     0.63     0.80     5.64     0  02:05        0.80
  WS02001212           JUNCTION     0.38     0.57     5.63     0  02:06        0.57
  WS02001213           JUNCTION     0.59     0.86     5.62     0  02:06        0.86
  WS02003059           JUNCTION     0.66     0.93     5.62     0  02:05        0.93
  WS02003060           JUNCTION     0.39     0.68     5.61     0  02:05        0.68
  WS02003066           JUNCTION     0.23     0.45     6.00     0  02:02        0.45
  WS02003067           JUNCTION     0.55     0.88     6.20     0  02:01        0.88
  WS02003069           JUNCTION     0.43     0.77     5.35     0  02:06        0.77
  WS02003072           JUNCTION     0.49     0.80     5.18     0  02:06        0.80
  WS02003073           JUNCTION     0.30     0.51     4.57     0  02:07        0.51
  WS02004138           JUNCTION     0.13     0.14     7.39     0  00:29        0.14
  WS02004139           JUNCTION     0.57     0.74     5.65     0  02:05        0.74
  WS02004401           JUNCTION     0.76     1.83     7.83     0  01:49        1.83
  WS02004402           JUNCTION     0.78     1.74     7.70     0  02:02        1.73
  WS02004403           JUNCTION     0.79     1.68     7.61     0  02:02        1.68
  WS02004404           JUNCTION     0.85     1.68     7.53     0  02:02        1.67
  WS02004405           JUNCTION     0.84     1.64     7.49     0  02:02        1.63
  WS02004406           JUNCTION     0.83     1.53     7.36     0  02:02        1.53
  WS02004407           JUNCTION     0.26     0.88     7.19     0  02:02        0.88
  WS02004409           JUNCTION     0.54     1.36     7.13     0  02:02        1.36
  WS02004410           JUNCTION     0.54     1.29     7.01     0  02:02        1.29
  WS02004411           JUNCTION     0.55     1.19     6.87     0  02:02        1.18
  WS02004412           JUNCTION     0.55     1.09     6.73     0  02:02        1.09
  WS02004413           JUNCTION     0.69     1.14     6.61     0  02:02        1.13
  WS02006109           JUNCTION     0.97     2.64     9.26     0  01:57        2.64
  WS02006110           JUNCTION     0.91     2.38     8.97     0  02:09        2.38
  WS02006111           JUNCTION     0.42     1.81     8.52     0  01:49        1.81
  WS02006112           JUNCTION     0.97     2.51     8.40     0  01:49        2.51
  WS02006113           JUNCTION     0.49     1.80     8.69     0  02:02        1.80
  WS02006115           JUNCTION     0.69     2.07     8.21     0  01:49        2.07
  WS02006116           JUNCTION     0.76     2.02     8.06     0  01:49        2.02
  WS02006228           JUNCTION     1.03     3.02     9.67     0  02:00        3.00
  WS02006229           JUNCTION     1.03     3.21     9.90     0  02:00        3.18
  WS02006230           JUNCTION     0.97     2.65     9.39     0  01:54        2.65
  WS02006231           JUNCTION     0.70     2.22     9.34     0  02:09        2.22
  WS02006232           JUNCTION     0.79     2.18     9.22     0  01:54        2.18
  WS02006234           JUNCTION     0.67     1.96     9.12     0  01:53        1.96
  WS02006235           JUNCTION     0.68     1.93     9.09     0  02:02        1.93
  WS02006238           JUNCTION     0.70     1.93     9.07     0  01:53        1.92
  WS02006239           JUNCTION     0.64     1.84     9.05     0  02:09        1.84
  WS02006240           JUNCTION     0.59     1.72     9.01     0  02:09        1.72
  WS02006242           JUNCTION     0.62     1.55     8.82     0  01:49        1.55
  WS02006243           JUNCTION     0.52     1.38     8.80     0  02:44        1.37
  WS02006245           JUNCTION     0.50     1.28     8.77     0  02:44        1.27
  WS02006247           JUNCTION     0.50     1.24     8.74     0  01:49        1.24
  WS02006248           JUNCTION     0.45     1.10     8.69     0  01:48        1.10
  WS02006249           JUNCTION     0.47     1.09     8.69     0  01:48        1.09
  WS02006251           JUNCTION     0.55     2.21     9.88     0  02:00        2.10
  WS02006252           JUNCTION     0.36     1.50     9.74     0  00:00        1.50
  WS02006253           JUNCTION     0.62     3.52    11.16     0  02:00        2.79
  WS02006256           JUNCTION     0.97     2.35     9.28     0  00:00        2.35
  WS02006280           JUNCTION     0.29     1.72     9.99     0  02:00        1.70
  WS02006284           JUNCTION     0.55     1.92    10.32     0  02:02        1.92
  WS02006287           JUNCTION     0.29     1.70    10.65     0  02:02        1.70
  WSF200               JUNCTION     0.23     0.51     5.75     0  02:05        0.51
  YS02001580           JUNCTION     0.07     1.05     9.59     0  01:57        0.78
  YS02001583           JUNCTION     0.10     1.01     9.51     0  01:57        0.82
  YS02001586           JUNCTION     0.17     1.13     9.30     0  01:57        1.13
  YS02001590           JUNCTION     0.27     1.40     9.26     0  01:57        1.38
  YS02001593           JUNCTION     0.19     1.34     9.20     0  01:57        1.29
  YS02001596           JUNCTION     0.27     1.71     9.13     0  02:09        1.71
  YS02001600           JUNCTION     0.34     1.87     9.00     0  01:57        1.86
  YS02001601           JUNCTION     0.53     2.06     8.90     0  01:56        2.06
  YS02001602           JUNCTION     0.45     1.87     8.77     0  01:57        1.87
  YS02001605           JUNCTION     0.41     1.78     8.68     0  02:02        1.78
  YS02001607           JUNCTION     0.41     1.65     8.50     0  02:09        1.65
  YS02001610           JUNCTION     0.45     1.68     8.48     0  01:57        1.68
  YS02001613           JUNCTION     0.41     1.66     8.50     0  01:59        1.66
  YS02001616           JUNCTION     0.34     1.61     8.52     0  02:01        1.61
  YS02001619           JUNCTION     0.32     1.61     8.54     0  02:01        1.61
  YS02001622           JUNCTION     0.30     1.59     8.49     0  02:02        1.59
  YS02001625           JUNCTION     0.56     1.78     8.38     0  01:59        1.78
  YS02001629           JUNCTION     0.43     1.85     8.40     0  01:57        1.85
  YS02001633           JUNCTION     0.50     2.08     8.53     0  02:02        2.08
  YS02001641           JUNCTION     0.48     2.10     8.54     0  02:02        2.10
  YS02001644           JUNCTION     0.47     1.92     8.35     0  02:02        1.92
  YS02001647           JUNCTION     0.25     1.79     8.40     0  02:02        1.79
  YS02001649           JUNCTION     0.29     1.86     8.25     0  02:02        1.86
  YS02001652           JUNCTION     0.18     1.70     8.29     0  02:03        1.53
  YS02001655           JUNCTION     0.13     1.56     8.41     0  02:02        1.24
  YS02001658           JUNCTION     0.09     1.44     8.58     0  02:02        0.95
  YS02001661           JUNCTION     0.13     0.75     8.15     0  02:02        0.73
  YS02001664           JUNCTION     0.05     0.28     8.20     0  02:02        0.27
  YS02001745           JUNCTION     0.05     0.50     8.01     0  02:03        0.31
  YS02001748           JUNCTION     0.08     0.94     8.01     0  02:03        0.94
  YS02001751           JUNCTION     0.10     1.31     8.19     0  02:02        1.10
  YS02001754           JUNCTION     0.15     1.51     8.12     0  02:02        1.35
  YS02001757           JUNCTION     0.31     1.80     8.06     0  02:02        1.80
  YS02001759           JUNCTION     0.25     1.88     8.25     0  02:02        1.88
  YS02001762           JUNCTION     0.24     1.90     8.30     0  02:02        1.90
  YS02001765           JUNCTION     0.22     1.85     8.30     0  02:02        1.85
  YS02001767           JUNCTION     0.22     1.79     8.28     0  02:02        1.79
  YS02001770           JUNCTION     0.23     1.95     8.44     0  02:01        1.95
  YS02001774           JUNCTION     0.30     2.05     8.47     0  02:01        2.05
  YS02001779           JUNCTION     0.13     1.68     8.37     0  02:01        1.68
  YS02001783           JUNCTION     0.22     1.29     7.43     0  02:00        1.26
  YS02001784           JUNCTION     0.24     1.15     7.22     0  02:00        1.15
  YS02001786           JUNCTION     0.20     0.90     6.93     0  02:00        0.88
  YS02001788           JUNCTION     0.15     0.62     6.60     0  02:01        0.62
  YS02001790           JUNCTION     0.18     0.72     6.37     0  02:04        0.72
  YS02001791           JUNCTION     0.11     0.44     5.91     0  02:04        0.43
  YS02001793           JUNCTION     0.06     0.21     5.04     0  02:13        0.21
  YS02001882           JUNCTION     0.28     1.69     8.40     0  02:00        1.66
  YS02001884           JUNCTION     0.36     1.77     8.38     0  02:00        1.75
  YS02001887           JUNCTION     0.44     1.83     8.36     0  02:00        1.82
  YS02001890           JUNCTION     0.47     1.81     8.32     0  02:00        1.81
  YS02001895           JUNCTION     0.25     1.57     8.31     0  02:01        1.55
  YS02001898           JUNCTION     0.25     1.57     8.30     0  02:09        1.53
  YS02001901           JUNCTION     0.36     1.68     8.29     0  02:00        1.66
  YS02001904           JUNCTION     0.35     1.64     8.27     0  02:00        1.63
  YS02001907           JUNCTION     0.66     1.96     8.25     0  02:00        1.96
  YS02001910           JUNCTION     0.46     1.95     8.46     0  02:01        1.84
  YS02001915           JUNCTION     0.27     1.90     8.62     0  02:01        1.70
  YS02001918           JUNCTION     0.13     1.81     8.88     0  02:01        1.37
  YS02001920           JUNCTION     0.21     2.14     9.15     0  02:01        1.37
  YS02001923           JUNCTION     0.09     2.03     9.29     0  02:01        1.17
  YS02001926           JUNCTION     0.14     1.90     9.35     0  02:01        1.00
  YS02001929           JUNCTION     0.07     1.78     9.47     0  02:01        0.71
  YS02006553           JUNCTION     0.66     2.00     8.28     0  02:01        2.00
  YS02006556           JUNCTION     0.64     2.00     8.31     0  02:01        2.00
  YS02006558           JUNCTION     0.68     2.04     8.31     0  02:01        2.04
  YS02006561           JUNCTION     0.13     0.98     7.64     0  02:00        0.90
  YS02163301           JUNCTION     0.45     1.97     8.49     0  02:02        1.97
  YS02163601           JUNCTION     0.54     2.08     8.48     0  02:02        2.08
  YS02164001           JUNCTION     0.47     2.10     8.56     0  02:02        2.10
  YSB1154              JUNCTION     0.43     1.91    10.97     0  02:02        1.91
  YSB1171              JUNCTION     0.58     1.95    10.85     0  01:59        1.95
  YSB1174              JUNCTION     0.39     1.79    10.90     0  01:59        1.78
  YSB6556              JUNCTION     0.33     1.75    10.92     0  02:02        1.75
  CC-1                 OUTFALL      0.00     0.00     0.00     0  00:00        0.00
  CC-2                 OUTFALL      0.00     0.00     0.00     0  00:00        0.00
  JK-1                 OUTFALL      0.00     0.00     0.00     0  00:00        0.00
  JK-2                 OUTFALL      0.00     0.00     0.00     0  00:00        0.00
  WSC                  OUTFALL      0.29     0.51     1.18     0  02:07        0.51
  CC-storage           STORAGE      0.74     1.41     6.91     0  02:24        1.41
  JK-storage           STORAGE      1.44     3.48     4.28     0  02:17        3.48
  XR-storage           STORAGE      7.85     9.26     7.26     0  08:00        9.26
  
  
  *******************
  Node Inflow Summary
  *******************
  
  -------------------------------------------------------------------------------------------------
                                  Maximum  Maximum                  Lateral       Total        Flow
                                  Lateral    Total  Time of Max      Inflow      Inflow     Balance
                                   Inflow   Inflow   Occurrence      Volume      Volume       Error
  Node                 Type           LPS      LPS  days hr:min    10^6 ltr    10^6 ltr     Percent
  -------------------------------------------------------------------------------------------------
  HS02004478           JUNCTION      0.00  2246.96     0  02:02           0        7.68      -0.009
  HS02004479           JUNCTION      0.00   462.78     0  02:00           0       0.779       0.116
  HS02004480           JUNCTION      0.00  2117.49     0  01:58           0        6.04       0.036
  HS02004770           JUNCTION   1081.37  1081.37     0  02:02        2.05        2.28       0.134
  HS02004777           JUNCTION      0.03   759.59     0  01:57    0.000864        1.81       0.286
  HS02004785           JUNCTION      0.15   773.92     0  01:56     0.00432        1.81       0.024
  HS02004788           JUNCTION    375.13   825.35     0  01:57       0.756        2.56      -0.014
  HS02004792           JUNCTION   1371.65  2092.70     0  02:02        2.83        5.39       0.006
  HS02004799           JUNCTION    211.49  1772.74     0  01:58       0.359        5.27       0.051
  HS02004802           JUNCTION      0.00   722.30     0  02:02           0        1.68       0.236
  HS02004807           JUNCTION    273.43   719.34     0  02:02       0.459        1.72       0.241
  HS02004817           JUNCTION      0.60   455.82     0  02:03      0.0173        1.32       1.258
  HS02004824           JUNCTION    416.57   650.60     0  01:58       0.953        1.52       0.023
  HS02004830           JUNCTION      0.15   663.13     0  01:57     0.00432       0.779       0.122
  HS02004837           JUNCTION    271.40   844.32     0  01:58       0.652        1.09       0.076
  HS02004842           JUNCTION      0.00   837.45     0  01:58           0       0.747       1.747
  HS02004848           JUNCTION    383.04  1092.63     0  01:59       0.949        1.52      -0.026
  HS02004852           JUNCTION      0.00  1091.23     0  01:59           0        1.36      -0.008
  HS02004856           JUNCTION    108.24  1193.30     0  01:59       0.183        1.54       0.021
  HS02004862           JUNCTION    177.57  1297.24     0  02:00       0.407        1.95      -0.020
  HS02004870           JUNCTION    148.54  1359.60     0  01:59       0.251         2.2       0.011
  HS02004876           JUNCTION    168.57  1397.78     0  01:59       0.309        2.51       0.006
  HS02004881           JUNCTION     82.32  1456.17     0  02:00       0.136        2.64       0.000
  HS02004901           JUNCTION    252.87   482.66     0  02:03       0.437       0.641       0.278
  WS02001211           JUNCTION      7.35   203.85     0  01:54       0.212        5.44       0.612
  WS02001212           JUNCTION      0.00   208.00     0  03:21           0        5.41       0.290
  WS02001213           JUNCTION      0.00   211.24     0  02:39           0        5.39       0.332
  WS02003059           JUNCTION      0.00   215.18     0  02:38           0        5.38       0.596
  WS02003060           JUNCTION     16.53  1477.95     0  02:04       0.476        13.5       0.111
  WS02003066           JUNCTION      0.00  1274.21     0  02:03           0        7.65       0.020
  WS02003067           JUNCTION      0.00  1274.32     0  02:02           0        7.66       0.059
  WS02003069           JUNCTION      0.32  1478.17     0  02:05     0.00922        13.5       0.116
  WS02003072           JUNCTION      0.00  1477.98     0  02:06           0        13.4       0.157
  WS02003073           JUNCTION      1.82  1479.87     0  02:06      0.0524        13.5       0.163
  WS02004138           JUNCTION      0.00   380.00     0  00:00           0        5.25       0.054
  WS02004139           JUNCTION      0.32   191.10     0  00:29     0.00924        5.26       0.508
  WS02004401           JUNCTION      0.00  1275.93     0  02:02           0        7.77       0.139
  WS02004402           JUNCTION      0.00  1275.92     0  02:02           0        7.76       0.139
  WS02004403           JUNCTION      0.00  1275.68     0  02:02           0        7.74       0.138
  WS02004404           JUNCTION      0.16  1275.29     0  02:02     0.00467        7.74       0.113
  WS02004405           JUNCTION      0.04  1276.42     0  02:02      0.0011        7.73       0.165
  WS02004406           JUNCTION      0.00  1275.96     0  02:02           0        7.72       0.281
  WS02004407           JUNCTION      0.00  1276.72     0  02:02           0         7.7       0.022
  WS02004409           JUNCTION      0.00  1273.99     0  02:02           0        7.69       0.042
  WS02004410           JUNCTION      0.00  1274.18     0  02:02           0        7.69       0.065
  WS02004411           JUNCTION      0.00  1274.54     0  02:02           0        7.69       0.083
  WS02004412           JUNCTION      0.00  1273.88     0  02:02           0        7.68       0.108
  WS02004413           JUNCTION      0.00  1274.21     0  02:02           0        7.67       0.184
  WS02006109           JUNCTION      1.23  1262.65     0  02:02      0.0354        7.56       0.139
  WS02006110           JUNCTION      0.00  1118.93     0  02:15           0        7.42       0.111
  WS02006111           JUNCTION      0.00  1118.88     0  02:15           0        7.41       0.012
  WS02006112           JUNCTION    220.06  1273.92     0  02:02        0.39         7.8       0.243
  WS02006113           JUNCTION      0.00  1118.84     0  02:15           0        7.41       0.027
  WS02006115           JUNCTION      0.00  1274.71     0  02:02           0        7.78       0.087
  WS02006116           JUNCTION      0.00  1275.18     0  02:02           0        7.77       0.071
  WS02006228           JUNCTION      0.00  1261.52     0  02:02           0        7.52       0.069
  WS02006229           JUNCTION      0.00  2249.75     0  02:02           0        9.39       0.090
  WS02006230           JUNCTION     10.28   999.17     0  02:02       0.296        3.64       0.268
  WS02006231           JUNCTION      0.00   465.78     0  03:10           0        2.67      -0.199
  WS02006232           JUNCTION      0.00   464.23     0  03:10           0        2.66       0.283
  WS02006234           JUNCTION      0.00   460.27     0  03:10           0        2.64      -0.390
  WS02006235           JUNCTION      0.00   496.98     0  03:35           0        2.62       0.540
  WS02006238           JUNCTION      0.00   402.27     0  02:09           0        2.42      -0.067
  WS02006239           JUNCTION      0.00   401.00     0  02:04           0        2.36      -0.085
  WS02006240           JUNCTION      0.00   400.86     0  02:04           0        2.32       0.045
  WS02006242           JUNCTION      0.00   400.81     0  02:04           0        2.31      -0.018
  WS02006243           JUNCTION      0.00   397.44     0  03:20           0        2.02      -0.060
  WS02006245           JUNCTION      0.00   397.48     0  03:20           0        2.02       0.455
  WS02006247           JUNCTION      0.00   397.68     0  03:15           0        2.02      -0.013
  WS02006248           JUNCTION      0.00   397.80     0  03:15           0        2.22      -0.016
  WS02006249           JUNCTION      0.00  1329.56     0  02:01           0        4.82       0.127
  WS02006251           JUNCTION      0.08  1490.88     0  02:00     0.00222        4.86       0.020
  WS02006252           JUNCTION      0.00   400.00     0  00:00           0        2.29      -0.688
  WS02006253           JUNCTION     27.06  1487.27     0  02:00      0.0425        2.71       0.016
  WS02006256           JUNCTION      0.00   300.00     0  00:00           0       0.283      -9.402
  WS02006280           JUNCTION      0.00  2247.54     0  02:02           0        7.66       0.014
  WS02006284           JUNCTION      0.10  2247.25     0  02:02     0.00275        7.66      -0.009
  WS02006287           JUNCTION      0.00  2246.87     0  02:02           0        7.66       0.010
  WSF200               JUNCTION      0.00  1274.34     0  02:03           0        7.65       0.011
  YS02001580           JUNCTION      0.00   115.08     0  01:57           0     0.00399      -5.218
  YS02001583           JUNCTION      0.00   170.33     0  01:57           0      0.0148      -5.476
  YS02001586           JUNCTION    452.49   452.49     0  02:04        1.15        1.16       0.116
  YS02001590           JUNCTION      0.00   318.20     0  02:02           0        1.07      -0.033
  YS02001593           JUNCTION      0.00   318.15     0  02:02           0        1.07       0.007
  YS02001596           JUNCTION      0.00   318.01     0  02:10           0        1.07       0.001
  YS02001600           JUNCTION      0.00   318.00     0  02:04           0        1.07       0.004
  YS02001601           JUNCTION    781.49  1099.21     0  02:03        1.55        2.62       0.028
  YS02001602           JUNCTION      0.00   518.08     0  01:56           0        1.97       0.016
  YS02001605           JUNCTION      0.00   517.63     0  01:56           0        1.91       0.014
  YS02001607           JUNCTION      0.00   517.17     0  01:56           0        1.91       0.098
  YS02001610           JUNCTION      0.00   521.23     0  01:56           0        1.91       0.114
  YS02001613           JUNCTION      0.00   519.49     0  01:56           0        1.73       0.094
  YS02001616           JUNCTION      0.00   517.38     0  01:56           0        1.73       0.028
  YS02001619           JUNCTION    778.88   939.70     0  01:59        1.78        3.51      -0.000
  YS02001622           JUNCTION      0.00   941.40     0  01:57           0        3.51       0.001
  YS02001625           JUNCTION      0.00   948.38     0  01:57           0        3.51       0.255
  YS02001629           JUNCTION      0.00   950.02     0  01:57           0        3.26       0.020
  YS02001633           JUNCTION    603.40  1418.43     0  01:59        1.17        4.43       0.073
  YS02001641           JUNCTION      0.00  1416.87     0  01:59           0        4.43       0.059
  YS02001644           JUNCTION    514.31  1848.31     0  01:59       0.959        5.38       0.061
  YS02001647           JUNCTION      0.00  1847.21     0  01:59           0        5.37       0.006
  YS02001649           JUNCTION      0.00  2134.17     0  02:00           0        6.29       0.003
  YS02001652           JUNCTION      0.00   592.70     0  02:04           0       0.917      -0.089
  YS02001655           JUNCTION      0.15   592.39     0  02:04     0.00443       0.917      -0.034
  YS02001658           JUNCTION      0.00   680.09     0  02:03           0       0.912      -0.057
  YS02001661           JUNCTION      0.00   528.24     0  02:02           0       0.912       0.032
  YS02001664           JUNCTION    519.73   519.73     0  02:02       0.912       0.912      -0.006
  YS02001745           JUNCTION    315.65   315.65     0  02:02       0.525       0.525       0.268
  YS02001748           JUNCTION      0.04   499.32     0  02:03      0.0013       0.525      -0.348
  YS02001751           JUNCTION      0.01   491.95     0  02:04    0.000317       0.531       0.116
  YS02001754           JUNCTION      0.26   387.21     0  02:01     0.00749       0.542      -0.323
  YS02001757           JUNCTION      0.00  3242.57     0  02:03           0        8.74       0.067
  YS02001759           JUNCTION    460.18  1155.83     0  02:01       0.767        1.91      -0.006
  YS02001762           JUNCTION      0.00   690.01     0  02:02           0        1.15       0.003
  YS02001765           JUNCTION      0.00   682.58     0  02:02           0        1.15       0.009
  YS02001767           JUNCTION      0.54   675.84     0  02:02      0.0154        1.15      -0.004
  YS02001770           JUNCTION    633.74   666.77     0  02:01        1.13        1.17      -0.015
  YS02001774           JUNCTION      0.00   320.86     0  02:00           0      0.0604       1.530
  YS02001779           JUNCTION      0.01   325.46     0  02:00    0.000144      0.0186      -3.104
  YS02001783           JUNCTION      0.00  1150.71     0  02:01           0        3.19       0.006
  YS02001784           JUNCTION      1.06  1152.18     0  02:01      0.0305        3.22       0.015
  YS02001786           JUNCTION      0.06  1152.03     0  02:01     0.00162        3.22       0.019
  YS02001788           JUNCTION      0.07  1153.62     0  02:01     0.00204        3.22       0.009
  YS02001790           JUNCTION      0.15  1167.42     0  02:01     0.00446        3.23       0.013
  YS02001791           JUNCTION      0.00  1280.46     0  02:04           0        3.23      -0.011
  YS02001793           JUNCTION      0.00  1234.26     0  02:01           0        3.23       0.006
  YS02001882           JUNCTION      0.00    61.24     0  01:59           0      0.0126       5.052
  YS02001884           JUNCTION      0.00    79.33     0  01:59           0      0.0485       5.610
  YS02001887           JUNCTION    489.19   493.74     0  02:01       0.798       0.832       0.543
  YS02001890           JUNCTION      0.00   494.07     0  02:01           0        0.79       0.650
  YS02001895           JUNCTION      0.00   486.42     0  02:01           0       0.784       0.188
  YS02001898           JUNCTION      0.00   487.41     0  02:01           0       0.782       0.030
  YS02001901           JUNCTION      0.00   487.36     0  02:01           0       0.785       0.410
  YS02001904           JUNCTION      0.00   487.14     0  02:01           0       0.789       0.353
  YS02001907           JUNCTION      0.00  1462.45     0  02:02           0        2.39       0.750
  YS02001910           JUNCTION      0.00   977.28     0  02:02           0        1.61       0.443
  YS02001915           JUNCTION    521.52   976.12     0  02:02       0.978        1.65       0.105
  YS02001918           JUNCTION      0.00   458.34     0  02:02           0       0.701       0.006
  YS02001920           JUNCTION      2.87   461.37     0  02:02      0.0827       0.684       0.139
  YS02001923           JUNCTION      0.04   410.92     0  02:01     0.00109       0.585      -0.188
  YS02001926           JUNCTION      0.05   687.35     0  02:01      0.0015       0.566      -0.135
  YS02001929           JUNCTION    270.40   507.97     0  02:00        0.55       0.553      -0.043
  YS02006553           JUNCTION      0.00   787.27     0  02:12           0        2.13       0.553
  YS02006556           JUNCTION      0.00   786.09     0  02:11           0        2.14       0.375
  YS02006558           JUNCTION    630.84  1154.50     0  02:00         1.1        3.22       0.112
  YS02006561           JUNCTION      0.00  1152.87     0  02:00           0        3.19      -0.001
  YS02163301           JUNCTION      0.00   940.09     0  01:59           0        3.26       0.043
  YS02163601           JUNCTION      0.11  1417.70     0  01:59     0.00317        4.42       0.108
  YS02164001           JUNCTION      0.00  1418.24     0  01:59           0        4.42       0.048
  YSB1154              JUNCTION    273.18   273.18     0  02:02       0.493       0.494       0.292
  YSB1171              JUNCTION      0.00   503.79     0  02:02           0       0.867       0.741
  YSB1174              JUNCTION    231.24   231.24     0  02:01       0.367       0.367       0.337
  YSB6556              JUNCTION      0.00   273.58     0  02:02           0       0.495       0.234
  CC-1                 OUTFALL       0.00   683.00     0  00:00           0         5.6       0.000
  CC-2                 OUTFALL       0.00   683.00     0  00:00           0        1.72       0.000
  JK-1                 OUTFALL       0.00  1000.00     0  00:00           0      0.0484       0.000
  JK-2                 OUTFALL       0.00  1000.00     0  00:00           0        3.03       0.000
  WSC                  OUTFALL       0.00  1480.06     0  02:07           0        13.5       0.000
  CC-storage           STORAGE       0.00  3244.84     0  02:03           0          11      -0.285
  JK-storage           STORAGE       0.00  1233.59     0  02:01           0        3.38      -0.516
  XR-storage           STORAGE     200.00   200.00     0  00:00        5.76        6.36       0.001
  
  
  **********************
  Node Surcharge Summary
  **********************
  
  Surcharging occurs when water rises above the top of the highest conduit.
  ---------------------------------------------------------------------
                                               Max. Height   Min. Depth
                                   Hours       Above Crown    Below Rim
  Node                 Type      Surcharged         Meters       Meters
  ---------------------------------------------------------------------
  HS02004478           JUNCTION        0.36          0.613        0.327
  HS02004479           JUNCTION        0.49          0.877        0.173
  HS02004480           JUNCTION        0.53          0.940        0.160
  HS02004770           JUNCTION        0.44          0.720        0.000
  HS02004777           JUNCTION        0.44          0.780        0.000
  HS02004785           JUNCTION        0.39          0.790        0.000
  HS02004788           JUNCTION        0.38          0.720        0.000
  HS02004792           JUNCTION        0.50          0.900        0.000
  HS02004799           JUNCTION        0.62          1.060        0.000
  HS02004802           JUNCTION        0.53          1.022        0.188
  HS02004807           JUNCTION        0.51          1.220        0.000
  HS02004817           JUNCTION        1.12          1.740        0.000
  HS02004824           JUNCTION        0.38          1.310        0.000
  HS02004830           JUNCTION        0.35          1.330        0.000
  HS02004837           JUNCTION        0.31          1.340        0.000
  HS02004842           JUNCTION        0.45          1.520        0.000
  HS02004848           JUNCTION        0.28          1.367        0.003
  HS02004852           JUNCTION        0.30          1.420        0.000
  HS02004856           JUNCTION        0.28          1.300        0.000
  HS02004862           JUNCTION        0.32          1.300        0.000
  HS02004870           JUNCTION        0.34          1.247        0.153
  HS02004876           JUNCTION        0.41          1.361        0.199
  HS02004881           JUNCTION        0.39          1.450        0.000
  HS02004901           JUNCTION        0.45          0.720        0.000
  WS02004401           JUNCTION        1.50          0.830        0.830
  WS02004402           JUNCTION        1.51          0.743        0.997
  WS02004403           JUNCTION        1.51          0.680        1.350
  WS02004404           JUNCTION        1.64          0.680        2.100
  WS02004405           JUNCTION        1.62          0.636        2.164
  WS02004406           JUNCTION        1.59          0.528        1.922
  WS02004409           JUNCTION        0.83          0.358        2.002
  WS02004410           JUNCTION        0.80          0.294        2.246
  WS02004411           JUNCTION        0.73          0.185        2.345
  WS02004412           JUNCTION        0.64          0.092        2.218
  WS02004413           JUNCTION        1.19          0.138        2.062
  WS02006109           JUNCTION        1.99          1.820        0.000
  WS02006110           JUNCTION        1.70          1.475        0.375
  WS02006111           JUNCTION        1.10          1.000        0.870
  WS02006112           JUNCTION        1.77          1.515        0.165
  WS02006113           JUNCTION        1.12          1.002        0.928
  WS02006115           JUNCTION        1.36          1.065        1.185
  WS02006116           JUNCTION        1.39          0.961        1.329
  WS02006228           JUNCTION        1.99          2.189        0.011
  WS02006229           JUNCTION        0.77          1.029        0.041
  WS02006230           JUNCTION        1.63          1.570        0.000
  WS02006231           JUNCTION        1.64          1.509        0.021
  WS02006232           JUNCTION        1.79          1.480        0.000
  WS02006234           JUNCTION        1.64          1.240        0.000
  WS02006235           JUNCTION        1.68          1.219        0.071
  WS02006238           JUNCTION        1.71          1.209        0.221
  WS02006239           JUNCTION        1.64          1.103        0.187
  WS02006240           JUNCTION        1.62          1.006        0.384
  WS02006242           JUNCTION        1.65          0.820        0.000
  WS02006243           JUNCTION        1.59          0.672        0.098
  WS02006245           JUNCTION        1.58          0.574        0.276
  WS02006247           JUNCTION        1.58          0.526        0.234
  WS02006248           JUNCTION        1.56          0.380        0.000
  WS02006249           JUNCTION        1.57          0.390        0.000
  WS02006251           JUNCTION        1.51          1.180        0.000
  WS02006252           JUNCTION        1.66          1.100        0.000
  WS02006253           JUNCTION        1.52          2.480        0.000
  WS02006256           JUNCTION        7.00          2.050        0.000
  WS02006280           JUNCTION        0.63          0.670        0.110
  WS02006284           JUNCTION        0.55          0.636        0.164
  WS02006287           JUNCTION        0.46          0.695        0.195
  YS02001580           JUNCTION        0.40          0.450        0.000
  YS02001583           JUNCTION        0.41          0.375        0.125
  YS02001586           JUNCTION        0.52          0.510        0.000
  YS02001590           JUNCTION        0.59          0.750        0.000
  YS02001593           JUNCTION        0.59          0.717        0.123
  YS02001596           JUNCTION        0.70          0.980        0.090
  YS02001600           JUNCTION        0.84          1.190        0.000
  YS02001601           JUNCTION        1.28          1.440        0.000
  YS02001602           JUNCTION        1.12          1.270        0.000
  YS02001605           JUNCTION        1.06          1.180        0.000
  YS02001607           JUNCTION        0.55          0.653        0.027
  YS02001610           JUNCTION        0.57          0.680        0.000
  YS02001613           JUNCTION        0.54          0.663        0.037
  YS02001616           JUNCTION        0.50          0.610        0.000
  YS02001619           JUNCTION        0.49          0.610        0.000
  YS02001622           JUNCTION        0.49          0.587        0.033
  YS02001625           JUNCTION        0.65          0.780        0.000
  YS02001629           JUNCTION        0.44          0.470        0.000
  YS02001633           JUNCTION        0.67          1.060        0.000
  YS02001641           JUNCTION        0.59          1.100        0.000
  YS02001644           JUNCTION        0.55          0.920        0.000
  YS02001647           JUNCTION        0.35          0.787        0.113
  YS02001649           JUNCTION        0.45          0.856        0.194
  YS02001652           JUNCTION        0.26          0.669        0.461
  YS02001655           JUNCTION        0.12          0.557        0.643
  YS02001658           JUNCTION        0.01          0.438        0.862
  YS02001751           JUNCTION        0.02          0.312        0.888
  YS02001754           JUNCTION        0.13          0.464        0.686
  YS02001757           JUNCTION        0.48          0.797        0.413
  YS02001759           JUNCTION        0.39          0.884        0.326
  YS02001762           JUNCTION        0.36          0.901        0.249
  YS02001765           JUNCTION        0.32          0.855        0.245
  YS02001767           JUNCTION        0.29          0.793        0.237
  YS02001770           JUNCTION        0.26          0.920        0.000
  YS02001774           JUNCTION        0.35          1.050        0.000
  YS02001779           JUNCTION        0.14          0.680        0.000
  YS02001783           JUNCTION        0.35          0.492        1.108
  YS02001784           JUNCTION        0.33          0.355        1.135
  YS02001786           JUNCTION        0.23          0.095        1.335
  YS02001882           JUNCTION        0.30          0.685        0.145
  YS02001884           JUNCTION        0.31          0.708        0.162
  YS02001887           JUNCTION        0.34          0.776        0.174
  YS02001890           JUNCTION        0.35          0.760        0.000
  YS02001895           JUNCTION        0.29          0.567        0.183
  YS02001898           JUNCTION        0.28          0.537        0.203
  YS02001901           JUNCTION        0.33          0.678        0.192
  YS02001904           JUNCTION        0.32          0.641        0.209
  YS02001907           JUNCTION        0.55          0.950        0.000
  YS02001910           JUNCTION        0.38          0.952        0.148
  YS02001915           JUNCTION        0.30          0.900        0.100
  YS02001918           JUNCTION        0.22          0.810        0.000
  YS02001920           JUNCTION        0.23          1.140        0.000
  YS02001923           JUNCTION        0.01          0.820        0.000
  YS02001926           JUNCTION        0.01          0.900        0.000
  YS02001929           JUNCTION        0.01          0.780        0.000
  YS02006553           JUNCTION        0.56          0.995        0.195
  YS02006556           JUNCTION        0.46          0.957        0.393
  YS02006558           JUNCTION        0.45          0.941        0.459
  YS02006561           JUNCTION        0.19          0.184        0.966
  YS02163301           JUNCTION        0.65          0.971        0.059
  YS02163601           JUNCTION        0.70          1.080        0.000
  YS02164001           JUNCTION        0.60          1.100        0.000
  YSB1154              JUNCTION        0.75          1.208        0.192
  YSB1171              JUNCTION        0.75          1.100        0.000
  YSB1174              JUNCTION        0.65          1.091        0.159
  YSB6556              JUNCTION        0.59          1.053        0.047
  
  
  *********************
  Node Flooding Summary
  *********************
  
  Flooding refers to all water that overflows a node, whether it ponds or not.
  --------------------------------------------------------------------------
                                                             Total   Maximum
                                 Maximum   Time of Max       Flood    Ponded
                        Hours       Rate    Occurrence      Volume     Depth
  Node                 Flooded       LPS   days hr:min    10^6 ltr    Meters
  --------------------------------------------------------------------------
  HS02004770              0.24    528.72      0  02:02       0.266     0.000
  HS02004777              0.01     42.74      0  01:57       0.000     0.000
  HS02004785              0.01    195.44      0  01:57       0.001     0.000
  HS02004788              0.01    199.07      0  01:57       0.001     0.000
  HS02004792              0.25    947.64      0  02:02       0.477     0.000
  HS02004799              0.04     64.94      0  02:00       0.002     0.000
  HS02004807              0.01     10.82      0  02:00       0.000     0.000
  HS02004817              0.01      6.99      0  02:00       0.000     0.000
  HS02004824              0.01     14.39      0  02:00       0.000     0.000
  HS02004830              0.01     17.77      0  02:00       0.000     0.000
  HS02004837              0.01     18.39      0  02:00       0.000     0.000
  HS02004842              0.01     79.73      0  02:00       0.001     0.000
  HS02004852              0.01    155.65      0  02:00       0.000     0.000
  HS02004856              0.01    278.72      0  02:00       0.001     0.000
  HS02004862              0.01    297.73      0  02:00       0.001     0.000
  HS02004881              0.01     87.33      0  02:00       0.000     0.000
  HS02004901              0.32    482.66      0  02:03       0.401     0.000
  WS02006109              0.29    209.44      0  02:02       0.126     0.000
  WS02006230              0.56    546.34      0  02:02       0.683     0.000
  WS02006232              0.14      1.24      0  02:13       0.000     0.000
  WS02006234              0.60     54.40      0  01:59       0.110     0.000
  WS02006242              0.70    123.12      0  02:04       0.281     0.000
  WS02006248              0.96    339.11      0  02:09       0.983     0.000
  WS02006249              1.53   1268.93      0  02:01       3.384     0.000
  WS02006251              0.01     44.85      0  02:00       0.000     0.000
  WS02006252              0.33    309.96      0  02:05       0.164     0.000
  WS02006253              0.01     85.65      0  02:00       0.000     0.000
  WS02006256              0.26    293.19      0  00:00       0.078     0.000
  YS02001580              0.01     92.57      0  01:57       0.000     0.000
  YS02001586              0.29    135.01      0  02:04       0.080     0.000
  YS02001590              0.01      9.31      0  01:57       0.000     0.000
  YS02001600              0.01      2.69      0  01:57       0.000     0.000
  YS02001601              0.45    701.22      0  02:03       0.646     0.000
  YS02001602              0.32     62.01      0  02:05       0.062     0.000
  YS02001605              0.01      0.43      0  02:02       0.000     0.000
  YS02001610              0.26    282.20      0  02:04       0.175     0.000
  YS02001616              0.01      0.61      0  02:01       0.000     0.000
  YS02001619              0.01      0.86      0  02:01       0.000     0.000
  YS02001625              0.21    651.25      0  02:03       0.242     0.000
  YS02001629              0.02    120.30      0  01:57       0.001     0.000
  YS02001633              0.01      0.36      0  02:02       0.000     0.000
  YS02001641              0.01      2.09      0  02:02       0.000     0.000
  YS02001644              0.01     14.31      0  02:03       0.000     0.000
  YS02001770              0.01     92.39      0  02:01       0.000     0.000
  YS02001774              0.01     12.83      0  02:01       0.000     0.000
  YS02001779              0.01    253.82      0  02:01       0.002     0.000
  YS02001890              0.02     42.23      0  02:00       0.002     0.000
  YS02001907              0.17    942.83      0  02:02       0.250     0.000
  YS02001918              0.01    151.86      0  02:01       0.002     0.000
  YS02001920              0.01     36.69      0  02:01       0.000     0.000
  YS02001923              0.01     77.34      0  02:01       0.000     0.000
  YS02001926              0.01    171.80      0  02:01       0.001     0.000
  YS02001929              0.01    180.25      0  02:01       0.001     0.000
  YS02163601              0.01      2.67      0  02:02       0.000     0.000
  YS02164001              0.01      4.76      0  02:02       0.000     0.000
  YSB1171                 0.12    321.74      0  02:02       0.090     0.000
  
  
  **********************
  Storage Volume Summary
  **********************
  
  --------------------------------------------------------------------------------------------------
                         Average     Avg  Evap Exfil       Maximum     Max    Time of Max    Maximum
                          Volume    Pcnt  Pcnt  Pcnt        Volume    Pcnt     Occurrence    Outflow
  Storage Unit           1000 m3    Full  Loss  Loss       1000 m3    Full    days hr:min        LPS
  --------------------------------------------------------------------------------------------------
  CC-storage               2.061      32     0     0         3.942      61       0  02:24    1783.53
  JK-storage               0.073      25     0     0         0.175      60       0  02:17    2300.00
  XR-storage               0.942      65     0     0         1.111      77       0  08:00     380.00
  
  
  ***********************
  Outfall Loading Summary
  ***********************
  
  -----------------------------------------------------------
                         Flow       Avg       Max       Total
                         Freq      Flow      Flow      Volume
  Outfall Node           Pcnt       LPS       LPS    10^6 ltr
  -----------------------------------------------------------
  CC-1                  53.01    683.00    683.00       5.601
  CC-2                  19.00    683.00    683.00       1.715
  JK-1                   0.18   1000.00   1000.00       0.048
  JK-2                  16.12   1000.00   1000.00       3.028
  WSC                   99.95    626.06   1480.06      13.457
  -----------------------------------------------------------
  System                37.65   3992.06   1480.06      23.850
  
  
  ********************
  Link Flow Summary
  ********************
  
  -----------------------------------------------------------------------------
                                 Maximum  Time of Max   Maximum    Max/    Max/
                                  |Flow|   Occurrence   |Veloc|    Full    Full
  Link                 Type          LPS  days hr:min     m/sec    Flow   Depth
  -----------------------------------------------------------------------------
  1                    CONDUIT   1480.06     0  02:07      3.68    0.52    0.51
  HS02004478WS02006287 CONDUIT   2246.87     0  02:02      2.61    0.63    1.00
  HS02004479HS02004480 CONDUIT    462.83     0  02:00      0.66    0.45    1.00
  HS02004480HS02004478 CONDUIT   2117.55     0  01:58      3.03    8.92    1.00
  HS02004770HS02004777 CONDUIT    759.56     0  01:57      1.09    1.39    1.00
  HS02004777HS02004785 CONDUIT    773.77     0  01:56      1.15    0.95    1.00
  HS02004785HS02004788 CONDUIT    623.26     0  02:16      1.36    4.70    1.00
  HS02004788HS02004792 CONDUIT    803.28     0  01:57      1.42    0.53    1.00
  HS02004792HS02004799 CONDUIT   1626.96     0  01:58      2.32    1.00    1.00
  HS02004799HS02004480 CONDUIT   1773.20     0  01:58      2.53    2.24    1.00
  HS02004802HS02004478 CONDUIT    723.80     0  02:02      1.03    0.64    1.00
  HS02004807HS02004802 CONDUIT    722.30     0  02:02      1.03    1.38    1.00
  HS02004817HS02004807 CONDUIT    456.07     0  02:03      0.65    0.27    1.00
  HS02004817HS02004824 CONDUIT    455.22     0  02:03      0.65    0.21    1.00
  HS02004824HS02004830 CONDUIT    662.98     0  01:57      0.97    0.87    1.00
  HS02004830HS02004837 CONDUIT    663.67     0  01:58      1.03    0.66    1.00
  HS02004837HS02004842 CONDUIT    837.45     0  01:58      1.20    0.50    1.00
  HS02004842HS02004848 CONDUIT    835.79     0  01:58      1.33    0.49    1.00
  HS02004848HS02004852 CONDUIT   1091.23     0  01:59      1.64    1.23    1.00
  HS02004852HS02004856 CONDUIT   1098.40     0  01:59      1.57    1.26    1.00
  HS02004856HS02004862 CONDUIT   1148.51     0  02:00      1.71    1.15    1.00
  HS02004862HS02004870 CONDUIT   1229.94     0  01:59      1.97    1.33    1.00
  HS02004870HS02004876 CONDUIT   1256.64     0  01:59      1.97    0.83    1.00
  HS02004876HS02004881 CONDUIT   1377.83     0  02:00      2.52   14.65    1.00
  HS02004881HS02006253 CONDUIT   1461.24     0  02:00      2.75    0.29    1.00
  HS02004901HS02004770 CONDUIT    265.63     0  02:11      0.38    1.00    1.00
  WS02001211WS02001212 CONDUIT    208.00     0  03:21      0.54    0.16    0.68
  WS02001212WS02001213 CONDUIT    211.24     0  02:39      1.04    0.33    0.55
  WS02001213WS02003059 CONDUIT    215.18     0  02:38      0.47    0.36    0.89
  WS02003059WS02003060 CONDUIT    220.71     0  03:19      0.66    0.14    0.80
  WS02003060WS02003069 CONDUIT   1477.85     0  02:05      2.08    0.58    0.60
  WS02003066WSF200     CONDUIT   1274.34     0  02:03      3.25    0.22    0.38
  WS02003067WS02003066 CONDUIT   1274.21     0  02:03      1.98    0.41    0.56
  WS02003069WS02003072 CONDUIT   1477.98     0  02:06      1.88    0.71    0.66
  WS02003072WS02003073 CONDUIT   1478.05     0  02:06      2.04    3.19    0.61
  WS02004138WS02004139 CONDUIT    190.77     0  00:29      2.16    0.04    0.41
  WS02004139WS02001211 CONDUIT    196.50     0  01:54      0.54    0.25    0.60
  WS02004401WS02004402 CONDUIT   1275.92     0  02:02      1.62    1.53    1.00
  WS02004402WS02004403 CONDUIT   1275.68     0  02:02      1.62    1.83    1.00
  WS02004403WS02004404 CONDUIT   1275.12     0  02:02      1.62    0.92    1.00
  WS02004404WS02004405 CONDUIT   1276.38     0  02:02      1.63   12.51    1.00
  WS02004405WS02004406 CONDUIT   1275.96     0  02:02      1.62    2.52    1.00
  WS02004406WS02004407 CONDUIT   1276.72     0  02:02      1.80    0.57    0.94
  WS02004407WS02004409 CONDUIT   1273.99     0  02:02      1.82    0.45    0.94
  WS02004409WS02004410 CONDUIT   1274.18     0  02:02      1.62    1.65    1.00
  WS02004410WS02004411 CONDUIT   1274.54     0  02:02      1.62    1.74    1.00
  WS02004411WS02004412 CONDUIT   1273.88     0  02:02      1.62    1.81    1.00
  WS02004412WS02004413 CONDUIT   1274.21     0  02:02      1.62    0.85    1.00
  WS02004413WS02003067 CONDUIT   1274.32     0  02:02      1.98    0.55    0.76
  WS02006109WS02006110 CONDUIT   1118.93     0  02:15      2.23    2.15    1.00
  WS02006110WS02006113 CONDUIT   1118.84     0  02:15      2.23    1.02    1.00
  WS02006111WS02006112 CONDUIT   1119.16     0  02:15      2.23    0.53    1.00
  WS02006112WS02006115 CONDUIT   1274.71     0  02:02      1.62    0.75    1.00
  WS02006113WS02006111 CONDUIT   1118.88     0  02:15      2.61    1.34    1.00
  WS02006115WS02006116 CONDUIT   1275.18     0  02:02      1.62    1.64    1.00
  WS02006116WS02004401 CONDUIT   1275.93     0  02:02      1.62    1.76    1.00
  WS02006228WS02006109 CONDUIT   1261.42     0  02:02      2.51    5.51    1.00
  WS02006229WS02006228 CONDUIT   1261.52     0  02:02      2.51    4.18    1.00
  WS02006230WS02006229 CONDUIT    988.89     0  02:02      2.57   22.01    1.00
  WS02006231WS02006230 CONDUIT    467.03     0  03:10      1.21    7.08    1.00
  WS02006232WS02006231 CONDUIT    465.78     0  03:10      1.21    0.98    1.00
  WS02006234WS02006232 CONDUIT    464.23     0  03:10      1.41    0.94    1.00
  WS02006235WS02006234 CONDUIT    460.27     0  03:10      1.21    4.86    1.00
  WS02006238WS02006235 CONDUIT    402.27     0  02:09      1.45    0.90    1.00
  WS02006239WS02006238 CONDUIT    401.00     0  02:04      1.11    1.28    1.00
  WS02006240WS02006239 CONDUIT    400.86     0  02:04      1.26    1.26    1.00
  WS02006242WS02006240 CONDUIT    400.81     0  02:04      1.14    1.59    1.00
  WS02006243WS02006242 CONDUIT    397.38     0  03:20      1.34    0.85    1.00
  WS02006245WS02006243 CONDUIT    397.44     0  03:20      1.39    1.18    1.00
  WS02006247WS02006245 CONDUIT    397.48     0  03:20      1.37    3.15    1.00
  WS02006248WS02006247 CONDUIT    397.68     0  03:15      1.38    0.87    1.00
  WS02006249WS02006248 CONDUIT    397.80     0  03:15      1.38    2.18    1.00
  WS02006251WS02006249 CONDUIT   1329.56     0  02:01      3.45    3.83    1.00
  WS02006252WS02006251 CONDUIT    405.49     0  01:30     26.25    1.49    1.00
  WS02006253WS02006251 CONDUIT   1490.81     0  02:00      3.87    4.47    1.00
  WS02006256WS02006235 CONDUIT    288.93     0  00:00      4.23    3.06    1.00
  WS02006280WS02006229 CONDUIT   2249.75     0  02:02      4.52    0.48    1.00
  WS02006284WS02006280 CONDUIT   2247.54     0  02:02      3.02    0.94    1.00
  WS02006287WS02006284 CONDUIT   2247.16     0  02:02      2.86    1.04    1.00
  WSF200WS02003060     CONDUIT   1274.29     0  02:02      2.31    0.28    0.50
  YS02001580YS02001583 CONDUIT    115.08     0  01:57      0.67    0.45    1.00
  YS02001583YS02001586 CONDUIT    166.52     0  01:57      0.69    0.25    1.00
  YS02001586YS02001590 CONDUIT    318.20     0  02:02      1.27    0.56    1.00
  YS02001590YS02001593 CONDUIT    318.15     0  02:02      1.13    2.00    1.00
  YS02001593YS02001596 CONDUIT    318.01     0  02:10      1.74    0.50    1.00
  YS02001596YS02001600 CONDUIT    318.00     0  02:04      1.21    0.62    1.00
  YS02001600YS02001601 CONDUIT    318.06     0  02:09      1.12    0.55    1.00
  YS02001601YS02001602 CONDUIT    518.08     0  01:56      1.83    1.87    1.00
  YS02001602YS02001605 CONDUIT    517.63     0  01:56      1.83   10.95    1.00
  YS02001605YS02001607 CONDUIT    517.17     0  01:56      1.83    2.84    1.00
  YS02001607YS02001610 CONDUIT    521.23     0  01:56      0.66    0.50    1.00
  YS02001610YS02001613 CONDUIT    519.49     0  01:56      0.66    0.60    1.00
  YS02001613YS02001616 CONDUIT    517.38     0  01:56      0.66    0.44    1.00
  YS02001616YS02001619 CONDUIT    510.48     0  01:57      0.66    0.89    1.00
  YS02001619YS02001622 CONDUIT    941.40     0  01:57      1.20    1.39    1.00
  YS02001622YS02001625 CONDUIT    948.38     0  01:57      1.21    0.51    1.00
  YS02001625YS02001629 CONDUIT    950.02     0  01:57      1.21    0.45    1.00
  YS02001629YS02163301 CONDUIT    940.09     0  01:59      1.20    1.16    1.00
  YS02001633YS02163601 CONDUIT   1417.59     0  01:59      1.80    1.49    1.00
  YS02001641YS02001644 CONDUIT   1416.81     0  01:59      1.80    4.58    1.00
  YS02001644YS02001647 CONDUIT   1847.21     0  01:59      2.36    1.09    1.00
  YS02001647YS02001649 CONDUIT   1856.11     0  02:00      2.40    0.98    1.00
  YS02001649YS02001757 CONDUIT   2141.62     0  02:00      2.73    1.30    1.00
  YS02001652YS02001649 CONDUIT    592.50     0  02:04      0.82    0.29    1.00
  YS02001655YS02001652 CONDUIT    592.70     0  02:04      1.30    0.29    1.00
  YS02001658YS02001655 CONDUIT    592.24     0  02:04      1.93    0.25    1.00
  YS02001661YS02001658 CONDUIT    680.09     0  02:03      2.38    0.27    0.83
  YS02001664YS02001661 CONDUIT    528.24     0  02:02      2.33    0.17    0.51
  YS02001745YS02001748 CONDUIT    499.28     0  02:03      2.21    0.19    0.60
  YS02001748YS02001751 CONDUIT    491.94     0  02:04      1.74    0.25    0.97
  YS02001751YS02001754 CONDUIT    372.92     0  02:05      1.44    0.18    1.00
  YS02001754YS02001757 CONDUIT    370.89     0  02:05      0.50    0.15    1.00
  YS02001757CaochengTiaoxuchi CONDUIT   3244.84     0  02:03      4.23    1.40    1.00
  YS02001759YS02001757 CONDUIT   1162.54     0  02:01      1.48    0.83    1.00
  YS02001762YS02001759 CONDUIT    699.60     0  02:01      0.89    0.81    1.00
  YS02001765YS02001762 CONDUIT    690.01     0  02:02      0.88    0.65    1.00
  YS02001767YS02001765 CONDUIT    682.58     0  02:02      0.87    0.86    1.00
  YS02001770YS02001767 CONDUIT    675.31     0  02:02      0.86    2.67    1.00
  YS02001774YS02001770 CONDUIT    320.86     0  02:00      0.41    0.20    1.00
  YS02001779YS02001774 CONDUIT    325.46     0  02:00      0.42    0.16    1.00
  YS02001783YS02001784 CONDUIT   1151.12     0  02:01      2.29    1.59    1.00
  YS02001784YS02001785 CONDUIT   1151.98     0  02:01      2.29    2.68    1.00
  YS02001786YS02001788 CONDUIT   1153.55     0  02:01      2.46    2.22    0.89
  YS02001788YS02001790 CONDUIT   1167.26     0  02:01      2.72    0.86    0.83
  YS02001790YS02001791 CONDUIT   1280.46     0  02:04      3.41    1.39    0.70
  YS02001791YS02001793 CONDUIT   1234.26     0  02:01      6.78    0.53    0.40
  YS02001793JiankangQianchi CONDUIT   1233.59     0  02:01      2.48    0.10    0.61
  YS02001882YS02001884 CONDUIT     61.24     0  01:59      0.13    0.07    1.00
  YS02001884YS02001887 CONDUIT     79.33     0  01:59      0.10    0.11    1.00
  YS02001887YS02001890 CONDUIT    494.07     0  02:01      0.63    0.85    1.00
  YS02001890YS02001895 CONDUIT    486.42     0  02:01      0.62    0.23    1.00
  YS02001895YS02001898 CONDUIT    487.41     0  02:01      0.62    0.85    1.00
  YS02001898YS02001901 CONDUIT    487.36     0  02:01      0.62    0.31    1.00
  YS02001901YS02001904 CONDUIT    487.14     0  02:01      0.62    0.76    1.00
  YS02001904YS02001907 CONDUIT    487.52     0  02:01      0.62    0.17    1.00
  YS02001907YS02006553 CONDUIT    787.27     0  02:12      0.87    0.93    1.00
  YS02001910YS02001907 CONDUIT    977.96     0  02:02      1.25    0.55    1.00
  YS02001915YS02001910 CONDUIT    977.28     0  02:02      1.24    0.49    1.00
  YS02001918YS02001915 CONDUIT    454.67     0  02:02      0.58    0.25    1.00
  YS02001920YS02001918 CONDUIT    458.34     0  02:02      0.64    0.44    1.00
  YS02001923YS02001920 CONDUIT    458.50     0  02:02      0.72    0.21    1.00
  YS02001926YS02001923 CONDUIT    410.88     0  02:01      0.98    0.59    1.00
  YS02001929YS02001926 CONDUIT    407.15     0  02:01      1.17    0.19    1.00
  YS02006553YS02006556 CONDUIT    786.09     0  02:11      1.00    0.67    1.00
  YS02006556YS02006558 CONDUIT    788.68     0  02:12      1.00    0.62    1.00
  YS02006558YS02006561 CONDUIT   1152.87     0  02:00      4.08    2.55    1.00
  YS02006561YS02001783 CONDUIT   1150.71     0  02:01      2.29    0.60    1.00
  YS02163301YS02001633 CONDUIT    939.55     0  01:59      1.20    0.88    1.00
  YS02163601YS02164001 CONDUIT   1418.24     0  01:59      1.81    1.26    1.00
  YS02164001YS02001641 CONDUIT   1416.87     0  01:59      1.80    1.93    1.00
  YSB1154YSB6556       CONDUIT    273.58     0  02:02      0.71    0.49    1.00
  YSB1171HS02004479    CONDUIT    462.78     0  02:00      0.92    0.31    1.00
  YSB1174YSB1171       CONDUIT    231.61     0  02:01      0.60    0.35    1.00
  YSB6556YSB1171       CONDUIT    274.66     0  02:02      0.71    0.28    1.00
  CC-R1                PUMP       683.00     0  00:00              1.00
  CC-R2                PUMP       683.00     0  00:00              1.00
  CC-S1                PUMP       200.00     0  00:00              1.00
  CC-S2                PUMP       200.00     0  00:00              1.00
  JK-R1                PUMP      1000.00     0  00:00              1.00
  JK-R2                PUMP      1000.00     0  00:00              1.00
  JK-S                 PUMP       300.00     0  00:00              1.00
  XR-1                 PUMP        95.00     0  00:00              1.00
  XR-2                 PUMP        95.00     0  00:00              1.00
  XR-3                 PUMP        95.00     0  00:00              1.00
  XR-4                 PUMP        95.00     0  00:00              1.00
  
  
  ***************************
  Flow Classification Summary
  ***************************
  
  -------------------------------------------------------------------------------------
                      Adjusted    ---------- Fraction of Time in Flow Class ---------- 
                       /Actual         Up    Down  Sub   Sup   Up    Down  Norm  Inlet 
  Conduit               Length    Dry  Dry   Dry   Crit  Crit  Crit  Crit  Ltd   Ctrl  
  -------------------------------------------------------------------------------------
  1                       1.00   0.00  0.00  0.00  0.00  1.00  0.00  0.00  0.31  0.00
  HS02004478WS02006287    1.00   0.11  0.00  0.00  0.60  0.29  0.00  0.00  0.60  0.00
  HS02004479HS02004480    1.00   0.05  0.00  0.00  0.95  0.00  0.00  0.00  0.11  0.00
  HS02004480HS02004478    1.00   0.10  0.00  0.00  0.46  0.00  0.00  0.45  0.00  0.00
  HS02004770HS02004777    1.00   0.00  0.09  0.00  0.91  0.00  0.00  0.00  0.03  0.00
  HS02004777HS02004785    1.00   0.00  0.00  0.00  1.00  0.00  0.00  0.00  0.12  0.00
  HS02004785HS02004788    1.00   0.00  0.00  0.00  1.00  0.00  0.00  0.00  0.00  0.00
  HS02004788HS02004792    1.00   0.00  0.00  0.00  0.99  0.01  0.00  0.00  0.92  0.00
  HS02004792HS02004799    1.00   0.00  0.00  0.00  0.98  0.02  0.00  0.00  0.87  0.00
  HS02004799HS02004480    1.00   0.00  0.05  0.00  0.89  0.00  0.06  0.00  0.00  0.00
  HS02004802HS02004478    1.00   0.10  0.00  0.00  0.90  0.00  0.00  0.00  0.02  0.00
  HS02004807HS02004802    1.00   0.09  0.00  0.00  0.90  0.00  0.00  0.01  0.00  0.00
  HS02004817HS02004807    1.00   0.00  0.09  0.00  0.91  0.00  0.00  0.00  0.01  0.00
  HS02004817HS02004824    1.00   0.00  0.00  0.00  1.00  0.00  0.00  0.00  0.82  0.00
  HS02004824HS02004830    1.00   0.00  0.00  0.00  1.00  0.00  0.00  0.00  0.01  0.00
  HS02004830HS02004837    1.00   0.00  0.00  0.00  1.00  0.00  0.00  0.00  0.90  0.00
  HS02004837HS02004842    1.00   0.00  0.00  0.00  1.00  0.00  0.00  0.00  0.11  0.00
  HS02004842HS02004848    1.00   0.00  0.09  0.00  0.91  0.00  0.00  0.00  0.58  0.00
  HS02004848HS02004852    1.00   0.09  0.00  0.00  0.91  0.00  0.00  0.00  0.72  0.00
  HS02004852HS02004856    1.00   0.09  0.00  0.00  0.90  0.00  0.00  0.00  0.68  0.00
  HS02004856HS02004862    1.00   0.00  0.11  0.00  0.89  0.00  0.00  0.00  0.76  0.00
  HS02004862HS02004870    1.00   0.00  0.00  0.00  1.00  0.00  0.00  0.00  0.03  0.00
  HS02004870HS02004876    1.00   0.00  0.00  0.00  0.99  0.01  0.00  0.00  0.87  0.00
  HS02004876HS02004881    1.00   0.04  0.00  0.00  0.73  0.23  0.00  0.00  0.00  0.00
  HS02004881HS02006253    1.00   0.03  0.03  0.00  0.45  0.02  0.00  0.47  0.18  0.00
  HS02004901HS02004770    1.00   0.09  0.00  0.00  0.91  0.00  0.00  0.00  0.00  0.00
  WS02001211WS02001212    1.00   0.00  0.04  0.00  0.96  0.00  0.00  0.00  0.00  0.00
  WS02001212WS02001213    1.00   0.04  0.00  0.00  0.50  0.00  0.45  0.00  0.00  0.00
  WS02001213WS02003059    1.00   0.00  0.00  0.00  0.99  0.00  0.00  0.00  0.00  0.00
  WS02003059WS02003060    1.00   0.00  0.00  0.00  1.00  0.00  0.00  0.00  0.03  0.00
  WS02003060WS02003069    1.00   0.00  0.00  0.00  0.99  0.01  0.00  0.00  0.55  0.00
  WS02003066WSF200        1.00   0.07  0.00  0.00  0.00  0.93  0.00  0.00  0.68  0.00
  WS02003067WS02003066    1.00   0.07  0.00  0.00  0.93  0.00  0.00  0.00  0.00  0.00
  WS02003069WS02003072    1.00   0.00  0.00  0.00  1.00  0.00  0.00  0.00  0.68  0.00
  WS02003072WS02003073    1.00   0.00  0.00  0.00  0.00  0.00  0.00  1.00  0.00  0.00
  WS02004138WS02004139    1.00   0.00  0.01  0.00  0.96  0.01  0.00  0.02  0.98  0.00
  WS02004139WS02001211    1.00   0.00  0.00  0.00  0.99  0.00  0.00  0.00  0.00  0.00
  WS02004401WS02004402    1.00   0.04  0.00  0.00  0.96  0.00  0.00  0.00  0.00  0.00
  WS02004402WS02004403    1.00   0.04  0.00  0.00  0.96  0.00  0.00  0.00  0.00  0.00
  WS02004403WS02004404    1.00   0.00  0.04  0.00  0.95  0.00  0.00  0.00  0.00  0.00
  WS02004404WS02004405    1.00   0.00  0.00  0.00  1.00  0.00  0.00  0.00  0.01  0.00
  WS02004405WS02004406    1.00   0.00  0.00  0.00  1.00  0.00  0.00  0.00  0.00  0.00
  WS02004406WS02004407    1.00   0.00  0.05  0.00  0.94  0.00  0.00  0.00  0.00  0.00
  WS02004407WS02004409    1.00   0.06  0.00  0.00  0.94  0.00  0.00  0.00  0.85  0.00
  WS02004409WS02004410    1.00   0.06  0.00  0.00  0.94  0.00  0.00  0.00  0.00  0.00
  WS02004410WS02004411    1.00   0.06  0.00  0.00  0.94  0.00  0.00  0.00  0.00  0.00
  WS02004411WS02004412    1.00   0.06  0.00  0.00  0.94  0.00  0.00  0.00  0.00  0.00
  WS02004412WS02004413    1.00   0.06  0.00  0.00  0.94  0.00  0.00  0.00  0.01  0.00
  WS02004413WS02003067    1.00   0.06  0.01  0.00  0.00  0.00  0.93  0.00  0.00  0.00
  WS02006109WS02006110    1.00   0.00  0.01  0.00  0.97  0.00  0.03  0.00  0.00  0.00
  WS02006110WS02006113    1.00   0.01  0.03  0.00  0.97  0.00  0.00  0.00  0.00  0.00
  WS02006111WS02006112    1.00   0.04  0.00  0.00  0.96  0.00  0.00  0.00  0.78  0.00
  WS02006112WS02006115    1.00   0.04  0.00  0.00  0.96  0.00  0.00  0.00  0.00  0.00
  WS02006113WS02006111    1.00   0.03  0.00  0.00  0.27  0.70  0.00  0.00  0.06  0.00
  WS02006115WS02006116    1.00   0.04  0.00  0.00  0.95  0.00  0.00  0.01  0.00  0.00
  WS02006116WS02004401    1.00   0.04  0.00  0.00  0.96  0.00  0.00  0.00  0.00  0.00
  WS02006228WS02006109    1.00   0.00  0.00  0.00  1.00  0.00  0.00  0.00  0.00  0.00
  WS02006229WS02006228    1.00   0.00  0.00  0.00  0.99  0.00  0.00  0.01  0.00  0.00
  WS02006230WS02006229    1.00   0.00  0.00  0.00  0.98  0.00  0.00  0.02  0.02  0.00
  WS02006231WS02006230    1.00   0.00  0.00  0.00  0.53  0.00  0.47  0.00  0.00  0.00
  WS02006232WS02006231    1.00   0.00  0.00  0.00  0.99  0.00  0.01  0.00  0.00  0.00
  WS02006234WS02006232    1.00   0.00  0.00  0.00  1.00  0.00  0.00  0.00  0.04  0.00
  WS02006235WS02006234    1.00   0.00  0.00  0.00  0.95  0.00  0.05  0.00  0.00  0.00
  WS02006238WS02006235    1.00   0.00  0.00  0.00  1.00  0.00  0.00  0.00  0.01  0.00
[...]
  WS02006256WS02006235    1.00   0.00  0.00  0.00  0.98  0.02  0.00  0.00  0.01  0.00
  WS02006280WS02006229    1.00   0.10  0.00  0.00  0.20  0.05  0.00  0.65  0.01  0.00
  WS02006284WS02006280    1.00   0.10  0.00  0.00  0.14  0.02  0.00  0.75  0.00  0.00
  WS02006287WS02006284    1.00   0.08  0.02  0.00  0.43  0.46  0.00  0.00  0.66  0.00
  WSF200WS02003060        1.00   0.00  0.07  0.00  0.45  0.48  0.00  0.00  0.64  0.00
  YS02001580YS02001583    1.00   0.23  0.53  0.00  0.25  0.00  0.00  0.00  0.69  0.00
  YS02001583YS02001586    1.00   0.31  0.27  0.00  0.42  0.00  0.00  0.00  0.69  0.00
  YS02001586YS02001590    1.00   0.09  0.00  0.00  0.61  0.02  0.00  0.27  0.35  0.00
  YS02001590YS02001593    1.00   0.09  0.00  0.00  0.14  0.00  0.76  0.00  0.00  0.00
  YS02001593YS02001596    1.00   0.10  0.00  0.00  0.17  0.01  0.00  0.72  0.02  0.00
  YS02001596YS02001600    1.00   0.10  0.00  0.00  0.29  0.02  0.00  0.60  0.06  0.00
  YS02001600YS02001601    1.00   0.10  0.00  0.00  0.90  0.00  0.00  0.00  0.62  0.00
  YS02001601YS02001602    1.00   0.09  0.00  0.00  0.90  0.00  0.00  0.00  0.00  0.00
  YS02001602YS02001605    1.00   0.10  0.00  0.00  0.90  0.00  0.00  0.00  0.00  0.00
  YS02001605YS02001607    1.00   0.10  0.00  0.00  0.90  0.00  0.00  0.00  0.00  0.00
  YS02001607YS02001610    1.00   0.10  0.00  0.00  0.90  0.00  0.00  0.00  0.01  0.00
  YS02001610YS02001613    1.00   0.10  0.00  0.00  0.90  0.00  0.00  0.00  0.00  0.00
  YS02001613YS02001616    1.00   0.09  0.00  0.00  0.91  0.00  0.00  0.00  0.00  0.00
  YS02001616YS02001619    1.00   0.09  0.00  0.00  0.91  0.00  0.00  0.00  0.00  0.00
  YS02001619YS02001622    1.00   0.09  0.00  0.00  0.91  0.00  0.00  0.00  0.35  0.00
  YS02001622YS02001625    1.00   0.09  0.00  0.00  0.91  0.00  0.00  0.00  0.04  0.00
  YS02001625YS02001629    1.00   0.09  0.03  0.00  0.21  0.00  0.67  0.00  0.00  0.00
  YS02001629YS02163301    1.00   0.11  0.00  0.00  0.89  0.00  0.00  0.00  0.00  0.00
  YS02001633YS02163601    1.00   0.00  0.01  0.00  0.99  0.00  0.00  0.00  0.15  0.00
  YS02001641YS02001644    1.00   0.00  0.00  0.00  1.00  0.00  0.00  0.00  0.00  0.00
  YS02001644YS02001647    1.00   0.00  0.12  0.00  0.88  0.00  0.00  0.00  0.00  0.00
  YS02001647YS02001649    1.00   0.00  0.11  0.00  0.52  0.36  0.00  0.00  0.59  0.00
  YS02001649YS02001757    1.00   0.00  0.00  0.00  0.62  0.38  0.00  0.00  0.51  0.00
  YS02001652YS02001649    1.00   0.00  0.00  0.00  0.98  0.02  0.00  0.00  0.76  0.00
  YS02001655YS02001652    1.00   0.00  0.00  0.00  0.26  0.02  0.00  0.72  0.08  0.00
  YS02001658YS02001655    1.00   0.00  0.10  0.00  0.52  0.38  0.00  0.00  0.73  0.00
  YS02001661YS02001658    1.00   0.10  0.00  0.00  0.35  0.55  0.00  0.00  0.73  0.00
  YS02001664YS02001661    1.00   0.09  0.00  0.00  0.69  0.22  0.00  0.00  0.86  0.00
  YS02001745YS02001748    1.00   0.00  0.00  0.00  0.07  0.02  0.00  0.91  0.05  0.00
  YS02001748YS02001751    1.00   0.00  0.00  0.00  0.72  0.28  0.00  0.00  0.79  0.00
  YS02001751YS02001754    1.00   0.00  0.00  0.00  0.22  0.01  0.00  0.77  0.06  0.00
  YS02001754YS02001757    1.00   0.00  0.00  0.00  1.00  0.00  0.00  0.00  0.83  0.00
  YS02001757CaochengTiaoxuchi    1.00   0.00  0.00  0.00  0.92  0.08  0.00  0.00  0.80  0.00
  YS02001759YS02001757    1.00   0.00  0.00  0.00  1.00  0.00  0.00  0.00  0.63  0.00
  YS02001762YS02001759    1.00   0.00  0.00  0.00  1.00  0.00  0.00  0.00  0.04  0.00
  YS02001765YS02001762    1.00   0.00  0.00  0.00  1.00  0.00  0.00  0.00  0.74  0.00
  YS02001767YS02001765    1.00   0.00  0.00  0.00  1.00  0.00  0.00  0.00  0.00  0.00
  YS02001770YS02001767    1.00   0.00  0.00  0.00  1.00  0.00  0.00  0.00  0.00  0.00
  YS02001774YS02001770    1.00   0.00  0.09  0.00  0.75  0.00  0.16  0.00  0.03  0.00
  YS02001779YS02001774    1.00   0.00  0.00  0.00  1.00  0.00  0.00  0.00  0.79  0.00
  YS02001783YS02001784    1.00   0.00  0.12  0.00  0.88  0.00  0.00  0.00  0.57  0.00
  YS02001784YS02001785    1.00   0.00  0.00  0.00  1.00  0.00  0.00  0.00  0.17  0.00
  YS02001786YS02001788    1.00   0.00  0.00  0.00  0.62  0.38  0.00  0.00  0.00  0.00
  YS02001788YS02001790    1.00   0.00  0.00  0.00  0.16  0.84  0.00  0.00  0.82  0.00
  YS02001790YS02001791    1.00   0.00  0.00  0.00  0.02  0.98  0.00  0.00  0.17  0.00
  YS02001791YS02001793    1.00   0.00  0.00  0.00  0.00  1.00  0.00  0.00  0.00  0.00
  YS02001793JiankangQianchi    1.00   0.00  0.00  0.00  0.97  0.03  0.00  0.00  0.99  0.00
  YS02001882YS02001884    1.00   0.11  0.00  0.00  0.89  0.00  0.00  0.00  0.00  0.00
  YS02001884YS02001887    1.00   0.06  0.02  0.00  0.91  0.00  0.00  0.00  0.00  0.00
  YS02001887YS02001890    1.00   0.00  0.00  0.00  0.95  0.00  0.05  0.00  0.00  0.00
  YS02001890YS02001895    1.00   0.00  0.11  0.00  0.89  0.00  0.00  0.00  0.00  0.00
  YS02001895YS02001898    1.00   0.11  0.00  0.00  0.87  0.00  0.02  0.00  0.00  0.00
  YS02001898YS02001901    1.00   0.11  0.00  0.00  0.89  0.00  0.00  0.00  0.01  0.00
  YS02001901YS02001904    1.00   0.11  0.00  0.00  0.89  0.00  0.00  0.00  0.00  0.00
  YS02001904YS02001907    1.00   0.00  0.11  0.00  0.89  0.00  0.00  0.00  0.00  0.00
  YS02001907YS02006553    1.00   0.00  0.04  0.00  0.96  0.00  0.00  0.00  0.00  0.00
  YS02001910YS02001907    1.00   0.00  0.00  0.00  0.95  0.00  0.00  0.04  0.12  0.00
  YS02001915YS02001910    1.00   0.00  0.00  0.00  0.96  0.04  0.00  0.00  0.16  0.00
  YS02001918YS02001915    1.00   0.00  0.00  0.00  0.96  0.04  0.00  0.00  0.78  0.00
  YS02001920YS02001918    1.00   0.00  0.00  0.00  1.00  0.00  0.00  0.00  0.00  0.00
  YS02001923YS02001920    1.00   0.00  0.00  0.00  1.00  0.00  0.00  0.00  0.95  0.00
  YS02001926YS02001923    1.00   0.00  0.07  0.00  0.05  0.00  0.88  0.00  0.00  0.00
  YS02001929YS02001926    1.00   0.00  0.09  0.00  0.91  0.00  0.00  0.00  0.84  0.00
  YS02006553YS02006556    1.00   0.02  0.00  0.00  0.98  0.00  0.00  0.00  0.03  0.00
  YS02006556YS02006558    1.00   0.00  0.00  0.00  1.00  0.00  0.00  0.00  0.00  0.00
  YS02006558YS02006561    1.00   0.12  0.00  0.00  0.05  0.83  0.00  0.00  0.19  0.00
  YS02006561YS02001783    1.00   0.12  0.00  0.00  0.09  0.79  0.00  0.00  0.71  0.00
  YS02163301YS02001633    1.00   0.00  0.11  0.00  0.89  0.00  0.00  0.00  0.00  0.00
  YS02163601YS02164001    1.00   0.00  0.07  0.00  0.93  0.00  0.00  0.00  0.00  0.00
  YS02164001YS02001641    1.00   0.01  0.07  0.00  0.93  0.00  0.00  0.00  0.05  0.00
  YSB1154YSB6556          1.00   0.09  0.00  0.00  0.91  0.00  0.00  0.00  0.02  0.00
  YSB1171HS02004479       1.00   0.05  0.00  0.00  0.94  0.00  0.00  0.01  0.10  0.00
  YSB1174YSB1171          1.00   0.06  0.02  0.00  0.92  0.00  0.00  0.00  0.00  0.00
  YSB6556YSB1171          1.00   0.05  0.04  0.00  0.91  0.00  0.00  0.00  0.00  0.00
  
  
  *************************
  Conduit Surcharge Summary
  *************************
  
  ----------------------------------------------------------------------------
                                                           Hours        Hours 
                         --------- Hours Full --------   Above Full   Capacity
  Conduit                Both Ends  Upstream  Dnstream   Normal Flow   Limited
  ----------------------------------------------------------------------------
  HS02004478WS02006287        0.36      0.36      0.53      0.01         0.01
  HS02004479HS02004480        0.54      0.54      0.56      0.01         0.01
  HS02004480HS02004478        0.47      0.53      0.47      1.64         0.47
  HS02004770HS02004777        0.44      0.44      0.44      0.10         0.07
  HS02004777HS02004785        0.39      0.39      0.44      0.01         0.01
  HS02004785HS02004788        0.38      0.39      0.38      1.40         0.37
  HS02004788HS02004792        0.38      0.38      0.50      0.01         0.01
  HS02004792HS02004799        0.50      0.50      0.62      0.01         0.01
  HS02004799HS02004480        0.53      0.53      0.62      0.73         0.01
  HS02004802HS02004478        0.48      0.48      0.54      0.01         0.01
  HS02004807HS02004802        0.51      0.51      0.53      0.10         0.11
  HS02004817HS02004807        0.51      0.51      1.12      0.01         0.01
  HS02004817HS02004824        0.38      0.38      1.12      0.01         0.01
  HS02004824HS02004830        0.35      0.35      0.38      0.01         0.01
  HS02004830HS02004837        0.31      0.31      0.35      0.01         0.01
  HS02004837HS02004842        0.31      0.31      0.45      0.01         0.01
  HS02004842HS02004848        0.28      0.28      0.45      0.01         0.01
  HS02004848HS02004852        0.28      0.28      0.30      0.03         0.01
  HS02004852HS02004856        0.30      0.30      0.32      0.02         0.01
  HS02004856HS02004862        0.28      0.28      0.32      0.02         0.01
  HS02004862HS02004870        0.32      0.32      0.34      0.03         0.02
  HS02004870HS02004876        0.34      0.34      0.41      0.01         0.01
  HS02004876HS02004881        0.39      0.41      0.39      1.40         0.39
  HS02004881HS02006253        0.39      0.39      1.52      0.01         0.01
  HS02004901HS02004770        0.44      0.44      0.45      0.01         0.01
  WS02003072WS02003073        0.01      0.01      0.01      2.25         0.01
  WS02004401WS02004402        1.50      1.50      1.51      1.28         1.27
  WS02004402WS02004403        1.51      1.51      1.51      1.50         1.49
  WS02004403WS02004404        1.51      1.51      1.64      0.01         0.01
  WS02004404WS02004405        1.62      1.64      1.62      2.60         1.62
  WS02004405WS02004406        1.59      1.62      1.59      1.74         1.59
  WS02004406WS02004407        0.01      0.01      1.59      0.01         0.01
  WS02004407WS02004409        0.01      0.01      0.83      0.01         0.01
  WS02004409WS02004410        0.80      0.83      0.80      1.35         0.80
  WS02004410WS02004411        0.73      0.80      0.73      1.46         0.73
  WS02004411WS02004412        0.64      0.73      0.64      1.49         0.64
  WS02004412WS02004413        0.64      0.64      1.19      0.01         0.01
  WS02004413WS02003067        0.01      0.01      1.19      0.01         0.01
  WS02006109WS02006110        1.70      1.70      2.04      1.71         0.01
  WS02006110WS02006113        1.12      1.12      2.02      0.22         0.01
  WS02006111WS02006112        1.10      1.10      2.19      0.01         0.01
  WS02006112WS02006115        1.36      1.36      1.77      0.01         0.01
  WS02006113WS02006111        1.11      1.12      1.11      1.25         1.11
  WS02006115WS02006116        1.38      1.38      1.39      1.34         1.33
  WS02006116WS02004401        1.49      1.49      1.50      1.47         1.47
  WS02006228WS02006109        1.99      2.05      1.99      2.29         1.99
  WS02006229WS02006228        1.98      2.01      1.99      2.18         1.98
  WS02006230WS02006229        2.09      2.12      2.09      2.58         1.10
  WS02006231WS02006230        1.63      1.63      1.65      2.26         0.88
  WS02006232WS02006231        1.64      1.64      1.79      0.01         0.11
  WS02006234WS02006232        1.67      1.67      1.79      0.01         0.01
  WS02006235WS02006234        1.64      1.64      1.68      2.06         0.85
  WS02006238WS02006235        1.70      1.70      1.73      0.01         0.25
  WS02006239WS02006238        1.68      1.68      1.71      0.92         0.25
  WS02006240WS02006239        1.63      1.63      1.64      0.90         0.22
  WS02006242WS02006240        1.62      1.62      1.67      1.31         0.71
  WS02006243WS02006242        1.60      1.60      1.65      0.01         0.01
  WS02006245WS02006243        1.58      1.58      1.59      0.20         0.17
  WS02006247WS02006245        1.58      1.58      1.58      1.82         0.61
  WS02006248WS02006247        1.56      1.56      1.58      0.01         0.01
  WS02006249WS02006248        1.56      1.56      1.57      0.93         0.01
  WS02006251WS02006249        1.56      1.56      1.57      1.51         1.47
  WS02006252WS02006251        1.62      1.63      1.65      1.23         0.01
  WS02006253WS02006251        1.56      1.56      1.56      0.65         0.01
  WS02006256WS02006235        2.47      2.49      6.91      0.30         0.01
  WS02006280WS02006229        0.64      0.64      0.77      0.01         0.01
  WS02006284WS02006280        0.55      0.55      0.63      0.01         0.01
  WS02006287WS02006284        0.46      0.46      0.57      0.14         0.14
  YS02001580YS02001583        0.40      0.40      0.44      0.01         0.01
  YS02001583YS02001586        0.41      0.41      0.52      0.01         0.01
  YS02001586YS02001590        0.53      0.53      0.59      0.01         0.01
  YS02001590YS02001593        0.59      0.59      0.61      0.63         0.01
  YS02001593YS02001596        0.60      0.60      0.70      0.01         0.01
  YS02001596YS02001600        0.74      0.74      0.84      0.01         0.01
  YS02001600YS02001601        0.91      0.91      1.28      0.01         0.01
  YS02001601YS02001602        1.12      1.12      1.34      0.87         0.01
  YS02001602YS02001605        1.06      1.06      1.12      2.08         0.01
  YS02001605YS02001607        1.00      1.06      1.00      1.22         1.00
  YS02001607YS02001610        0.55      0.55      0.57      0.01         0.01
  YS02001610YS02001613        0.54      0.54      0.57      0.01         0.01
  YS02001613YS02001616        0.50      0.50      0.54      0.01         0.01
  YS02001616YS02001619        0.49      0.49      0.50      0.01         0.01
  YS02001619YS02001622        0.49      0.49      0.49      0.62         0.47
  YS02001622YS02001625        0.49      0.49      0.65      0.01         0.01
  YS02001625YS02001629        0.44      0.44      0.65      0.01         0.01
  YS02001629YS02163301        0.64      0.64      0.65      0.25         0.23
  YS02001633YS02163601        0.67      0.67      0.70      0.45         0.44
  YS02001641YS02001644        0.55      0.59      0.55      1.38         0.55
  YS02001644YS02001647        0.35      0.35      0.55      0.04         0.01
  YS02001647YS02001649        0.35      0.35      0.45      0.01         0.01
  YS02001649YS02001757        0.44      0.45      0.48      0.30         0.24
  YS02001652YS02001649        0.28      0.28      0.45      0.01         0.01
  YS02001655YS02001652        0.11      0.11      0.26      0.01         0.01
  YS02001658YS02001655        0.01      0.01      0.11      0.01         0.01
  YS02001661YS02001658        0.01      0.01      0.01      0.01         0.01
  YS02001748YS02001751        0.01      0.01      0.02      0.01         0.01
  YS02001751YS02001754        0.02      0.02      0.13      0.01         0.01
  YS02001754YS02001757        0.16      0.16      0.48      0.01         0.01
  YS02001757CaochengTiaoxuchi        0.39      0.48      1.19      0.27         0.14
  YS02001759YS02001757        0.39      0.39      0.48      0.01         0.01
  YS02001762YS02001759        0.36      0.36      0.39      0.01         0.02
  YS02001765YS02001762        0.32      0.32      0.36      0.01         0.01
  YS02001767YS02001765        0.29      0.29      0.32      0.01         0.01
  YS02001770YS02001767        0.28      0.29      0.29      0.37         0.21
  YS02001774YS02001770        0.26      0.26      0.35      0.01         0.01
  YS02001779YS02001774        0.14      0.14      0.35      0.01         0.01
  YS02001783YS02001784        0.33      0.35      0.33      0.49         0.33
  YS02001784YS02001785        0.23      0.33      0.23      0.71         0.23
  YS02001786YS02001788        0.01      0.23      0.01      0.58         0.01
  YS02001790YS02001791        0.01      0.01      0.01      0.31         0.01
  YS02001793JiankangQianchi        0.01      0.01      6.51      0.01         0.01
  YS02001882YS02001884        0.30      0.30      0.31      0.01         0.01
  YS02001884YS02001887        0.33      0.33      0.34      0.01         0.01
  YS02001887YS02001890        0.35      0.35      0.37      0.01         0.01
  YS02001890YS02001895        0.29      0.29      0.38      0.01         0.01
  YS02001895YS02001898        0.28      0.28      0.29      0.01         0.01
  YS02001898YS02001901        0.29      0.29      0.33      0.01         0.01
  YS02001901YS02001904        0.32      0.32      0.33      0.01         0.01
  YS02001904YS02001907        0.32      0.32      0.56      0.01         0.01
  YS02001907YS02006553        0.72      0.72      0.78      0.01         0.01
  YS02001910YS02001907        0.38      0.38      0.55      0.01         0.01
  YS02001915YS02001910        0.30      0.30      0.38      0.01         0.01
  YS02001918YS02001915        0.22      0.22      0.30      0.01         0.01
  YS02001920YS02001918        0.22      0.22      0.23      0.01         0.01
  YS02001923YS02001920        0.17      0.17      0.23      0.01         0.01
  YS02001926YS02001923        0.01      0.01      0.01      0.01         0.01
  YS02001929YS02001926        0.01      0.01      0.01      0.01         0.01
  YS02006553YS02006556        0.46      0.46      0.56      0.01         0.01
  YS02006556YS02006558        0.52      0.52      0.58      0.01         0.01
  YS02006558YS02006561        0.26      0.45      0.26      0.66         0.26
  YS02006561YS02001783        0.19      0.19      0.35      0.01         0.01
  YS02163301YS02001633        0.65      0.65      0.69      0.01         0.01
  YS02163601YS02164001        0.60      0.60      0.70      0.16         0.01
  YS02164001YS02001641        0.59      0.60      0.59      0.73         0.58
  YSB1154YSB6556              0.59      0.59      0.75      0.01         0.01
  YSB1171HS02004479           0.49      0.49      0.75      0.01         0.01
  YSB1174YSB1171              0.65      0.65      1.02      0.01         0.01
  YSB6556YSB1171              0.59      0.59      1.22      0.01         0.01
  
  
  ***************
  Pumping Summary
  ***************
  
  ---------------------------------------------------------------------------------------------------------
                                                  Min       Avg       Max     Total     Power    % Time Off
                        Percent   Number of      Flow      Flow      Flow    Volume     Usage    Pump Curve
  Pump                 Utilized   Start-Ups       LPS       LPS       LPS  10^6 ltr     Kw-hr    Low   High
  ---------------------------------------------------------------------------------------------------------
  CC-R1                   28.54          32      0.00    683.00    683.00     5.615     99.36    0.0   47.8
  CC-R2                    8.79          30      0.00    683.00    683.00     1.728     30.51    0.0   49.8
  CC-S1                   19.84          16      0.00    200.00    200.00     1.143      7.65    0.0    0.0
  CC-S2                   19.83          27      0.00    200.00    200.00     1.142      7.62    0.0    0.0
  JK-R1                    0.16           1      0.00   1000.00   1000.00     0.047      0.36    0.0    0.0
  JK-R2                   10.51          18      0.00   1000.00   1000.00     3.027     25.11    0.0    0.0
  JK-S                     3.20          31      0.00    300.00    300.00     0.276      5.37    0.0    0.0
  XR-1                    97.91           2      0.00     95.00     95.00     2.679      9.61    0.0    0.0
  XR-2                    93.94           2      0.00     95.00     95.00     2.570      8.77    0.0    0.0
  XR-3                     0.00           1      0.00     95.00     95.00     0.000      0.00    0.0    0.0
  XR-4                     0.00           1      0.00     95.00     95.00     0.000      0.00    0.0    0.0
  

  Analysis begun on:  Fri Jun 30 17:27:13 2023
  Analysis ended on:  Fri Jun 30 17:27:34 2023
  Total elapsed time: 00:00:21