
  OWA STORM WATER MANAGEMENT MODEL - VERSION v5.1.14 (OWA 2022-07-31)
  --------------------------------------------------------------

  WARNING 04: minimum elevation drop used for Conduit WS02004404WS02004405
  WARNING 03: negative offset ignored for Link YS02001904YS02001907
  
  *********************************************************
  NOTE: The summary statistics displayed in this report are
  based on results found at every computational time step,  
  not just on results from each reporting time step.
  *********************************************************
  
  ****************
  Analysis Options
  ****************
  Flow Units ............... LPS
  Process Models:
    Rainfall/Runoff ........ YES
    RDII ................... NO
    Snowmelt ............... NO
    Groundwater ............ NO
    Flow Routing ........... YES
    Ponding Allowed ........ NO
    Water Quality .......... NO
  Infiltration Method ...... HORTON
  Flow Routing Method ...... DYNWAVE
  Surcharge Method ......... EXTRAN
  Starting Date ............ 08/28/2015 08:00:00
  Ending Date .............. 08/28/2015 16:00:00
  Antecedent Dry Days ...... 8.0
  Report Time Step ......... 00:01:00
  Wet Time Step ............ 00:01:00
  Dry Time Step ............ 00:01:00
  Routing Time Step ........ 30.00 sec
  Variable Time Step ....... YES
  Maximum Trials ........... 8
  Number of Threads ........ 1
  Head Tolerance ........... 0.001500 m
  
  
  **************************        Volume         Depth
  Runoff Quantity Continuity     hectare-m            mm
  **************************     ---------       -------
  Initial LID Storage ......         0.072         1.184
  Total Precipitation ......         4.378        72.264
  Evaporation Loss .........         0.000         0.000
  Infiltration Loss ........         0.212         3.500
  Surface Runoff ...........         3.382        55.821
  Final Storage ............         0.857        14.151
  Continuity Error (%) .....        -0.032
  
  
  **************************        Volume        Volume
  Flow Routing Continuity        hectare-m      10^6 ltr
  **************************     ---------     ---------
  Dry Weather Inflow .......         0.630         6.296
  Wet Weather Inflow .......         3.381        33.813
  Groundwater Inflow .......         0.000         0.000
  RDII Inflow ..............         0.000         0.000
  External Inflow ..........         0.105         1.045
  External Outflow .........         2.477        24.769
  Flooding Loss ............         1.633        16.327
  Evaporation Loss .........         0.000         0.000
  Exfiltration Loss ........         0.000         0.000
  Initial Stored Volume ....         0.303         3.031
  Final Stored Volume ......         0.318         3.180
  Continuity Error (%) .....        -0.206
  
  
  *************************
  Highest Continuity Errors
  *************************
  Node YS02001884 (5.18%)
  Node YS02001583 (-3.70%)
  Node WS02006256 (3.04%)
  Node HS02004842 (1.74%)
  Node WS02006252 (-1.45%)
  
  
  ***************************
  Time-Step Critical Elements
  ***************************
  Link WS02006280WS02006229 (62.63%)
  Link YS02001791YS02001793 (7.07%)
  Link WS02006238WS02006235 (6.54%)
  Link WS02004404WS02004405 (6.50%)
  Link WS02006252WS02006251 (2.83%)
  
  
  ********************************
  Highest Flow Instability Indexes
  ********************************
  Link WS02006113WS02006111 (30)
  Link WS02006256WS02006235 (28)
  Link WS02004404WS02004405 (27)
  Link WS02004403WS02004404 (24)
  Link WS02006238WS02006235 (24)
  
  
  *************************
  Routing Time Step Summary
  *************************
  Minimum Time Step           :     0.00 sec
  Average Time Step           :     2.73 sec
  Maximum Time Step           :     6.46 sec
  Percent in Steady State     :    -0.00
  Average Iterations per Step :     3.91
  Percent Not Converging      :    20.94
  
  
  ***************************
  Subcatchment Runoff Summary
  ***************************
  
  ------------------------------------------------------------------------------------------------------------------------------
                            Total      Total      Total      Total     Imperv       Perv      Total       Total     Peak  Runoff
                           Precip      Runon       Evap      Infil     Runoff     Runoff     Runoff      Runoff   Runoff   Coeff
  Subcatchment                 mm         mm         mm         mm         mm         mm         mm    10^6 ltr      LPS
  ------------------------------------------------------------------------------------------------------------------------------
  sub0                      72.26       0.00       0.00       1.02      65.96       4.04      70.00        0.06    42.33   0.969
  sub1                      72.26       0.00       0.00       1.56      56.53       5.57      62.10        0.41   272.41   0.859
  sub10                     72.26       0.00       0.00       0.99      52.98       3.71      56.69        0.63   424.90   0.784
  sub11                     72.26       0.00       0.00       0.90      49.24       3.46      52.70        0.61   436.06   0.729
  sub12                     72.26       0.00       0.00       1.58      50.06       6.04      56.10        0.49   365.28   0.776
  sub14                     72.26       0.00       0.00       0.98      46.63       3.72      50.35        0.48   337.74   0.697
  sub15                     72.26       0.00       0.00       4.52      41.92      13.80      55.72        0.96   624.85   0.771
  sub16                     72.26       0.00       0.00       4.77      40.89      15.75      56.64        0.59   417.47   0.784
  sub17                     72.26       0.00       0.00       5.12      45.13      16.53      61.66        0.53   364.61   0.853
  sub2                      72.26       0.00       0.00       7.17      41.33      17.59      58.91        0.55   302.80   0.815
  sub22                     72.26       0.00       0.00       8.03      39.13      22.06      61.19        3.87  2374.61   0.847
  sub23                     72.26       0.00       0.00       6.02      40.30      18.10      58.40        2.79  1828.90   0.808
  sub3                      72.26       0.00       0.00       7.70      40.93      16.84      57.77        1.30   658.08   0.799
  sub4                      72.26       0.00       0.00       1.71      55.69       5.32      61.01        1.27   687.92   0.844
  sub5                      72.26       0.00       0.00       0.88      54.69       3.32      58.01        0.66   438.76   0.803
  sub60                     72.26       0.00       0.00       1.41      48.16       5.28      53.44        0.70   504.11   0.740
  sub61                     72.26       0.00       0.00       2.17      48.11       7.87      55.99        1.03   738.21   0.775
  sub62                     72.26       0.00       0.00       0.96      51.29       3.59      54.88        1.50  1016.47   0.759
  sub63                     72.26       0.00       0.00       4.00      41.21      13.15      54.36        1.23   855.43   0.752
  sub64                     72.26       0.00       0.00       1.92      46.92       6.53      53.45        1.28   837.99   0.740
  sub65                     72.26       0.00       0.00       1.76      50.65       5.96      56.61        1.56   980.65   0.783
  sub66                     72.26       0.00       0.00       4.72      39.85      11.90      51.75        2.41  1316.96   0.716
  sub67                     72.26       0.00       0.00       0.95      52.58       3.71      56.30        1.05   772.09   0.779
  sub68                     72.26       0.00       0.00       1.67      46.44       6.04      52.48        1.44  1011.13   0.726
  sub69                     72.26       0.00       0.00       1.55      48.60       7.04      55.64        2.06  1266.52   0.770
  sub7                      72.26       0.00       0.00       1.04      49.98       4.00      53.98        0.18   131.22   0.747
  sub70                     72.26       0.00       0.00       5.26      38.94      14.86      53.79        1.55   763.24   0.744
  sub71                     72.26       0.00       0.00       0.89      46.60       3.25      49.84        1.30   842.86   0.690
  sub72                     72.26       0.00       0.00       0.85      50.34       3.02      53.36        0.73   437.25   0.738
  sub8                      72.26       0.00       0.00       1.02      48.57       3.88      52.45        0.34   237.12   0.726
  sub9                      72.26       0.00       0.00       0.99      47.09       3.76      50.84        0.24   172.82   0.704
  

  ***********************
  LID Performance Summary
  ***********************

  --------------------------------------------------------------------------------------------------------------------
                                         Total      Evap     Infil   Surface    Drain    Initial     Final  Continuity
                                        Inflow      Loss      Loss   Outflow   Outflow   Storage   Storage       Error
  Subcatchment      LID Control             mm        mm        mm        mm        mm        mm        mm           %
  --------------------------------------------------------------------------------------------------------------------
  sub1              GreenRoof            72.26      0.00      0.00      0.00      0.00      7.05     79.37       -0.07
  sub10             GreenRoof            72.26      0.00      0.00      0.00      0.00      7.05     79.37       -0.07
  sub11             GreenRoof            72.26      0.00      0.00      0.00      0.00      7.05     79.37       -0.07
  sub12             GreenRoof            72.26      0.00      0.00      0.00      0.00      7.05     79.37       -0.07
  sub14             GreenRoof            72.26      0.00      0.00      0.00      0.00      7.05     79.37       -0.07
  sub15             GreenRoof            72.26      0.00      0.00      0.00      0.00      7.05     79.37       -0.07
  sub16             GreenRoof            72.26      0.00      0.00      0.00      0.00      7.05     79.37       -0.07
  sub17             GreenRoof            72.26      0.00      0.00      0.00      0.00      7.05     79.37       -0.07
  sub2              GreenRoof            72.26      0.00      0.00      0.00      0.00      7.05     79.37       -0.07
  sub22             GreenRoof            72.26      0.00      0.00      0.00      0.00      7.05     79.37       -0.07
  sub23             GreenRoof            72.26      0.00      0.00      0.00      0.00      7.05     79.37       -0.07
  sub3              GreenRoof            72.26      0.00      0.00      0.00      0.00      7.05     79.37       -0.07
  sub4              GreenRoof            72.26      0.00      0.00      0.00      0.00      7.05     79.37       -0.07
  sub5              GreenRoof            72.26      0.00      0.00      0.00      0.00      7.05     79.37       -0.07
  sub60             GreenRoof            72.26      0.00      0.00      0.00      0.00      7.05     79.37       -0.07
  sub61             GreenRoof            72.26      0.00      0.00      0.00      0.00      7.05     79.37       -0.07
  sub62             GreenRoof            72.26      0.00      0.00      0.00      0.00      7.05     79.37       -0.07
  sub63             GreenRoof            72.26      0.00      0.00      0.00      0.00      7.05     79.37       -0.07
  sub64             GreenRoof            72.26      0.00      0.00      0.00      0.00      7.05     79.37       -0.07
  sub65             GreenRoof            72.26      0.00      0.00      0.00      0.00      7.05     79.37       -0.07
  sub66             GreenRoof            72.26      0.00      0.00      0.00      0.00      7.05     79.37       -0.07
  sub67             GreenRoof            72.26      0.00      0.00      0.00      0.00      7.05     79.37       -0.07
  sub68             GreenRoof            72.26      0.00      0.00      0.00      0.00      7.05     79.37       -0.07
  sub69             GreenRoof            72.26      0.00      0.00      0.00      0.00      7.05     79.37       -0.07
  sub7              GreenRoof            72.26      0.00      0.00      0.00      0.00      7.05     79.37       -0.07
  sub70             GreenRoof            72.26      0.00      0.00      0.00      0.00      7.05     79.37       -0.07
  sub71             GreenRoof            72.26      0.00      0.00      0.00      0.00      7.05     79.37       -0.07
  sub72             GreenRoof            72.26      0.00      0.00      0.00      0.00      7.05     79.37       -0.07
  sub8              GreenRoof            72.26      0.00      0.00      0.00      0.00      7.05     79.37       -0.07
  sub9              GreenRoof            72.26      0.00      0.00      0.00      0.00      7.05     79.37       -0.07
  
  ******************
  Node Depth Summary
  ******************
  
  ---------------------------------------------------------------------------------
                                 Average  Maximum  Maximum  Time of Max    Reported
                                   Depth    Depth      HGL   Occurrence   Max Depth
  Node                 Type       Meters   Meters   Meters  days hr:min      Meters
  ---------------------------------------------------------------------------------
  HS02004478           JUNCTION     0.28     1.86    11.09     0  02:35        1.86
  HS02004479           JUNCTION     0.36     1.77    10.97     0  02:18        1.77
  HS02004480           JUNCTION     0.33     1.81    11.05     0  02:35        1.81
  HS02004770           JUNCTION     0.32     1.42    11.25     0  02:12        1.42
  HS02004777           JUNCTION     0.35     1.48    11.28     0  02:12        1.47
  HS02004785           JUNCTION     0.24     1.49    11.39     0  02:18        1.49
  HS02004788           JUNCTION     0.20     1.42    11.32     0  02:12        1.42
  HS02004792           JUNCTION     0.27     1.60    11.12     0  02:15        1.60
  HS02004799           JUNCTION     0.40     1.76    10.97     0  02:16        1.76
  HS02004802           JUNCTION     0.38     1.92    11.05     0  02:35        1.92
  HS02004807           JUNCTION     0.35     1.92    11.09     0  02:22        1.92
  HS02004817           JUNCTION     0.66     2.44    11.29     0  02:35        2.44
  HS02004824           JUNCTION     0.22     2.01    11.41     0  02:24        2.01
  HS02004830           JUNCTION     0.21     2.03    11.50     0  02:35        2.03
  HS02004837           JUNCTION     0.18     2.04    11.62     0  02:35        2.04
  HS02004842           JUNCTION     0.47     2.22    11.49     0  02:23        2.22
  HS02004848           JUNCTION     0.16     2.07    11.67     0  02:35        2.07
  HS02004852           JUNCTION     0.16     2.12    11.63     0  02:16        2.12
  HS02004856           JUNCTION     0.22     2.07    11.50     0  02:16        2.07
  HS02004862           JUNCTION     0.18     2.00    11.38     0  02:24        2.00
  HS02004870           JUNCTION     0.17     1.99    11.28     0  02:24        1.99
  HS02004876           JUNCTION     0.23     2.08    11.11     0  02:24        2.07
  HS02004881           JUNCTION     0.15     1.82    10.85     0  02:24        1.82
  HS02004901           JUNCTION     0.33     1.42    11.24     0  02:12        1.42
  WS02001211           JUNCTION     0.64     0.82     5.66     0  02:28        0.82
  WS02001212           JUNCTION     0.39     0.58     5.64     0  02:27        0.58
  WS02001213           JUNCTION     0.61     0.88     5.64     0  02:27        0.88
  WS02003059           JUNCTION     0.67     0.94     5.63     0  02:26        0.94
  WS02003060           JUNCTION     0.39     0.69     5.63     0  02:26        0.69
  WS02003066           JUNCTION     0.24     0.46     6.01     0  02:25        0.46
  WS02003067           JUNCTION     0.55     0.89     6.21     0  02:24        0.89
  WS02003069           JUNCTION     0.44     0.79     5.37     0  02:26        0.79
  WS02003072           JUNCTION     0.50     0.82     5.19     0  02:27        0.82
  WS02003073           JUNCTION     0.30     0.52     4.58     0  02:27        0.52
  WS02004138           JUNCTION     0.13     0.14     7.39     0  00:29        0.14
  WS02004139           JUNCTION     0.58     0.75     5.66     0  02:28        0.75
  WS02004401           JUNCTION     0.81     1.94     7.94     0  02:25        1.93
  WS02004402           JUNCTION     0.82     2.03     7.99     0  02:35        2.03
  WS02004403           JUNCTION     0.82     1.95     7.88     0  02:35        1.95
  WS02004404           JUNCTION     0.88     1.97     7.82     0  02:35        1.97
  WS02004405           JUNCTION     0.87     2.03     7.88     0  02:35        2.03
  WS02004406           JUNCTION     0.85     1.76     7.59     0  02:35        1.76
  WS02004407           JUNCTION     0.28     0.98     7.29     0  02:25        0.98
  WS02004409           JUNCTION     0.56     1.42     7.19     0  02:25        1.41
  WS02004410           JUNCTION     0.56     1.32     7.04     0  02:24        1.31
  WS02004411           JUNCTION     0.56     1.22     6.90     0  02:25        1.22
  WS02004412           JUNCTION     0.56     1.12     6.76     0  02:25        1.12
  WS02004413           JUNCTION     0.70     1.15     6.62     0  02:25        1.15
  WS02006109           JUNCTION     1.05     2.64     9.26     0  02:13        2.64
  WS02006110           JUNCTION     0.98     2.43     9.02     0  02:18        2.41
  WS02006111           JUNCTION     0.49     1.82     8.53     0  02:25        1.80
  WS02006112           JUNCTION     1.03     2.65     8.53     0  02:18        2.65
  WS02006113           JUNCTION     0.56     1.97     8.86     0  02:18        1.97
  WS02006115           JUNCTION     0.74     2.22     8.36     0  02:18        2.22
  WS02006116           JUNCTION     0.80     2.11     8.15     0  02:18        2.11
  WS02006228           JUNCTION     1.12     3.03     9.68     0  02:35        3.03
  WS02006229           JUNCTION     1.14     3.25     9.94     0  02:35        3.25
  WS02006230           JUNCTION     1.04     2.65     9.39     0  02:08        2.65
  WS02006231           JUNCTION     0.75     2.21     9.34     0  02:35        2.21
  WS02006232           JUNCTION     0.83     2.18     9.22     0  02:07        2.18
  WS02006234           JUNCTION     0.70     1.96     9.12     0  01:45        1.96
  WS02006235           JUNCTION     0.70     2.00     9.16     0  01:45        1.95
  WS02006238           JUNCTION     0.72     2.07     9.21     0  02:00        1.94
  WS02006239           JUNCTION     0.65     2.03     9.24     0  01:45        1.99
  WS02006240           JUNCTION     0.60     2.10     9.39     0  01:45        1.84
  WS02006242           JUNCTION     0.63     1.55     8.82     0  00:05        1.55
  WS02006243           JUNCTION     0.52     1.48     8.90     0  00:05        1.43
  WS02006245           JUNCTION     0.49     1.56     9.04     0  01:45        1.38
  WS02006247           JUNCTION     0.49     1.47     8.97     0  01:45        1.30
  WS02006248           JUNCTION     0.44     1.10     8.69     0  00:05        1.10
  WS02006249           JUNCTION     0.45     1.09     8.69     0  00:05        1.09
  WS02006251           JUNCTION     0.54     2.21     9.88     0  01:50        2.15
  WS02006252           JUNCTION     0.32     1.50     9.74     0  00:00        1.50
  WS02006253           JUNCTION     0.64     3.52    11.16     0  03:10        3.09
  WS02006256           JUNCTION     0.96     2.35     9.28     0  00:00        2.35
  WS02006280           JUNCTION     0.37     1.80    10.07     0  02:35        1.80
  WS02006284           JUNCTION     0.62     2.08    10.48     0  02:35        2.08
  WS02006287           JUNCTION     0.36     1.89    10.84     0  02:35        1.89
  WSF200               JUNCTION     0.23     0.53     5.76     0  02:25        0.53
  YS02001580           JUNCTION     0.09     1.05     9.59     0  02:12        0.80
  YS02001583           JUNCTION     0.12     1.14     9.64     0  02:12        0.84
  YS02001586           JUNCTION     0.22     1.13     9.30     0  02:12        1.13
  YS02001590           JUNCTION     0.32     1.40     9.26     0  02:12        1.39
  YS02001593           JUNCTION     0.25     1.34     9.20     0  02:37        1.34
  YS02001596           JUNCTION     0.34     1.74     9.16     0  02:18        1.74
  YS02001600           JUNCTION     0.43     1.87     9.00     0  02:12        1.87
  YS02001601           JUNCTION     0.63     2.06     8.90     0  02:11        2.06
  YS02001602           JUNCTION     0.53     1.87     8.77     0  02:15        1.87
  YS02001605           JUNCTION     0.49     1.78     8.68     0  02:18        1.78
  YS02001607           JUNCTION     0.46     1.68     8.53     0  02:35        1.68
  YS02001610           JUNCTION     0.51     1.68     8.48     0  02:17        1.68
  YS02001613           JUNCTION     0.47     1.67     8.51     0  02:35        1.66
  YS02001616           JUNCTION     0.40     1.61     8.52     0  02:18        1.61
  YS02001619           JUNCTION     0.37     1.61     8.54     0  02:18        1.61
  YS02001622           JUNCTION     0.36     1.62     8.52     0  02:18        1.62
  YS02001625           JUNCTION     0.62     1.78     8.38     0  02:17        1.78
  YS02001629           JUNCTION     0.49     1.85     8.40     0  02:18        1.85
  YS02001633           JUNCTION     0.56     2.08     8.53     0  02:18        2.08
  YS02001641           JUNCTION     0.53     2.10     8.54     0  02:18        2.10
  YS02001644           JUNCTION     0.52     1.92     8.35     0  02:18        1.92
  YS02001647           JUNCTION     0.29     1.75     8.36     0  02:22        1.72
  YS02001649           JUNCTION     0.32     1.97     8.36     0  02:22        1.91
  YS02001652           JUNCTION     0.20     1.77     8.37     0  02:22        1.74
  YS02001655           JUNCTION     0.14     1.61     8.46     0  02:21        1.54
  YS02001658           JUNCTION     0.11     1.42     8.57     0  02:21        1.28
  YS02001661           JUNCTION     0.15     1.06     8.47     0  02:25        1.06
  YS02001664           JUNCTION     0.07     0.46     8.39     0  02:24        0.45
  YS02001745           JUNCTION     0.06     0.72     8.24     0  02:24        0.71
  YS02001748           JUNCTION     0.09     1.47     8.55     0  02:22        1.15
  YS02001751           JUNCTION     0.11     1.63     8.51     0  02:22        1.47
  YS02001754           JUNCTION     0.15     1.85     8.46     0  02:22        1.60
  YS02001757           JUNCTION     0.31     2.04     8.30     0  02:22        1.92
  YS02001759           JUNCTION     0.25     1.99     8.36     0  02:22        1.93
  YS02001762           JUNCTION     0.25     1.98     8.38     0  02:22        1.92
  YS02001765           JUNCTION     0.23     1.95     8.40     0  02:22        1.90
  YS02001767           JUNCTION     0.23     1.92     8.41     0  02:22        1.89
  YS02001770           JUNCTION     0.24     1.94     8.44     0  02:22        1.92
  YS02001774           JUNCTION     0.31     1.99     8.41     0  02:22        1.98
  YS02001779           JUNCTION     0.13     1.68     8.37     0  02:19        1.68
  YS02001783           JUNCTION     0.27     1.31     7.46     0  02:18        1.31
  YS02001784           JUNCTION     0.28     1.15     7.22     0  02:18        1.11
  YS02001786           JUNCTION     0.24     0.90     6.93     0  02:18        0.87
  YS02001788           JUNCTION     0.17     0.62     6.60     0  02:24        0.62
  YS02001790           JUNCTION     0.21     0.72     6.37     0  02:23        0.72
  YS02001791           JUNCTION     0.13     0.44     5.91     0  02:26        0.43
  YS02001793           JUNCTION     0.07     0.29     5.13     0  02:29        0.28
  YS02001882           JUNCTION     0.33     1.83     8.55     0  02:35        1.83
  YS02001884           JUNCTION     0.42     1.93     8.55     0  02:35        1.93
  YS02001887           JUNCTION     0.50     2.00     8.54     0  02:35        2.00
  YS02001890           JUNCTION     0.52     1.81     8.32     0  02:18        1.81
  YS02001895           JUNCTION     0.30     1.75     8.50     0  02:35        1.75
  YS02001898           JUNCTION     0.31     1.77     8.51     0  02:35        1.77
  YS02001901           JUNCTION     0.42     1.87     8.48     0  02:35        1.87
  YS02001904           JUNCTION     0.40     1.85     8.48     0  02:35        1.85
  YS02001907           JUNCTION     0.71     1.96     8.25     0  02:18        1.96
  YS02001910           JUNCTION     0.52     2.10     8.61     0  02:18        2.10
  YS02001915           JUNCTION     0.33     2.00     8.72     0  02:18        2.00
  YS02001918           JUNCTION     0.17     1.81     8.88     0  02:19        1.41
  YS02001920           JUNCTION     0.25     2.04     9.05     0  02:19        1.47
  YS02001923           JUNCTION     0.13     1.92     9.18     0  02:19        1.23
  YS02001926           JUNCTION     0.17     1.81     9.26     0  02:19        1.06
  YS02001929           JUNCTION     0.09     1.78     9.47     0  02:19        0.84
  YS02006553           JUNCTION     0.72     2.19     8.47     0  02:18        2.19
  YS02006556           JUNCTION     0.69     2.39     8.70     0  02:18        2.39
  YS02006558           JUNCTION     0.73     2.47     8.74     0  02:18        2.47
  YS02006561           JUNCTION     0.16     0.96     7.62     0  02:18        0.89
  YS02163301           JUNCTION     0.51     2.03     8.55     0  02:18        2.03
  YS02163601           JUNCTION     0.59     2.08     8.48     0  02:18        2.08
  YS02164001           JUNCTION     0.52     2.10     8.56     0  02:18        2.10
  YSB1154              JUNCTION     0.50     2.10    11.16     0  02:18        2.10
  YSB1171              JUNCTION     0.64     1.95    10.85     0  02:16        1.95
  YSB1174              JUNCTION     0.45     1.95    11.06     0  02:18        1.95
  YSB6556              JUNCTION     0.40     1.80    10.97     0  02:18        1.80
  CC-1                 OUTFALL      0.00     0.00     0.00     0  00:00        0.00
  CC-2                 OUTFALL      0.00     0.00     0.00     0  00:00        0.00
  JK-1                 OUTFALL      0.00     0.00     0.00     0  00:00        0.00
  JK-2                 OUTFALL      0.00     0.00     0.00     0  00:00        0.00
  WSC                  OUTFALL      0.30     0.52     1.19     0  02:28        0.52
  CC-storage           STORAGE      0.52     0.80     6.30     0  00:00        0.80
  JK-storage           STORAGE      1.41     4.24     5.04     0  02:34        4.21
  XR-storage           STORAGE      7.86     9.26     7.26     0  08:00        9.26
  
  
  *******************
  Node Inflow Summary
  *******************
  
  -------------------------------------------------------------------------------------------------
                                  Maximum  Maximum                  Lateral       Total        Flow
                                  Lateral    Total  Time of Max      Inflow      Inflow     Balance
                                   Inflow   Inflow   Occurrence      Volume      Volume       Error
  Node                 Type           LPS      LPS  days hr:min    10^6 ltr    10^6 ltr     Percent
  -------------------------------------------------------------------------------------------------
  HS02004478           JUNCTION      0.00  2304.06     0  02:23           0        8.75      -0.004
  HS02004479           JUNCTION      0.00   402.05     0  02:18           0       0.827       0.098
  HS02004480           JUNCTION      0.00  2052.71     0  02:16           0        6.62       0.039
  HS02004770           JUNCTION   1828.90  1828.90     0  02:25        2.79        3.02       0.100
  HS02004777           JUNCTION      0.03   695.86     0  02:12    0.000864        1.93       0.270
  HS02004785           JUNCTION      0.15   710.21     0  02:12     0.00432        1.93       0.024
  HS02004788           JUNCTION    626.52   848.00     0  02:13        1.01        2.94       0.007
  HS02004792           JUNCTION   2374.89  3216.46     0  02:25        3.87        6.81       0.009
  HS02004799           JUNCTION    337.74  1741.94     0  02:13       0.479        5.96       0.048
  HS02004802           JUNCTION      0.00  1232.88     0  02:26           0        2.27       0.179
  HS02004807           JUNCTION    436.06  1619.07     0  02:25       0.612        2.38       0.184
  HS02004817           JUNCTION      0.60  1196.08     0  02:26      0.0173        1.82       0.939
  HS02004824           JUNCTION    687.97  1225.66     0  02:25        1.27        2.03       0.035
  HS02004830           JUNCTION      0.15   559.27     0  02:13     0.00432       0.981       0.135
  HS02004837           JUNCTION    431.25   715.22     0  02:16       0.808        1.27       0.078
  HS02004842           JUNCTION      0.00   719.67     0  02:16           0       0.759       1.766
  HS02004848           JUNCTION    658.08   979.89     0  02:16         1.3        1.86       0.008
  HS02004852           JUNCTION      0.00   955.44     0  02:15           0        1.68       0.020
  HS02004856           JUNCTION    172.82   964.45     0  02:15       0.245        1.92       0.094
  HS02004862           JUNCTION    303.00  1025.99     0  02:15       0.555        2.47      -0.002
  HS02004870           JUNCTION    237.12  1239.99     0  02:24       0.335        2.81       0.002
  HS02004876           JUNCTION    272.41  1510.00     0  02:25       0.413        3.22      -0.175
  HS02004881           JUNCTION    131.22  1640.93     0  02:25       0.182        3.43      -0.010
  HS02004901           JUNCTION    417.47   682.62     0  02:25       0.593       0.931       0.198
  WS02001211           JUNCTION      7.35   204.47     0  03:00       0.212        5.44       0.611
  WS02001212           JUNCTION      0.00   211.89     0  03:14           0        5.41       0.290
  WS02001213           JUNCTION      0.00   217.76     0  03:13           0        5.39       0.332
  WS02003059           JUNCTION      0.00   224.52     0  03:13           0        5.38       0.595
  WS02003060           JUNCTION     16.53  1528.73     0  02:26       0.476        13.5       0.108
  WS02003066           JUNCTION      0.00  1330.24     0  02:25           0        7.72       0.019
  WS02003067           JUNCTION      0.00  1329.67     0  02:25           0        7.73       0.056
  WS02003069           JUNCTION      0.32  1528.47     0  02:26     0.00922        13.5       0.113
  WS02003072           JUNCTION      0.00  1528.14     0  02:27           0        13.5       0.154
  WS02003073           JUNCTION      1.82  1530.24     0  02:27      0.0524        13.5       0.159
  WS02004138           JUNCTION      0.00   380.00     0  00:00           0        5.25       0.054
  WS02004139           JUNCTION      0.32   191.09     0  00:29     0.00924        5.26       0.508
  WS02004401           JUNCTION      0.00  1330.15     0  02:24           0        7.83       0.133
  WS02004402           JUNCTION      0.00  1330.18     0  02:25           0        7.82       0.135
  WS02004403           JUNCTION      0.00  1330.46     0  02:25           0        7.81       0.133
  WS02004404           JUNCTION      0.16  1331.15     0  02:25     0.00467         7.8       0.112
  WS02004405           JUNCTION      0.04  1331.03     0  02:25      0.0011         7.8       0.165
  WS02004406           JUNCTION      0.00  1330.85     0  02:25           0        7.78       0.274
  WS02004407           JUNCTION      0.00  1331.21     0  02:25           0        7.76       0.018
  WS02004409           JUNCTION      0.00  1329.46     0  02:25           0        7.76       0.040
  WS02004410           JUNCTION      0.00  1329.93     0  02:25           0        7.76       0.062
  WS02004411           JUNCTION      0.00  1329.85     0  02:25           0        7.75       0.077
  WS02004412           JUNCTION      0.00  1329.78     0  02:25           0        7.75       0.102
  WS02004413           JUNCTION      0.00  1329.60     0  02:25           0        7.74       0.180
  WS02006109           JUNCTION      1.23  1289.43     0  02:23      0.0354        7.61       0.141
  WS02006110           JUNCTION      0.00  1117.98     0  02:38           0        7.34       0.096
  WS02006111           JUNCTION      0.00  1118.31     0  02:38           0        7.33       0.012
  WS02006112           JUNCTION    364.61  1330.59     0  02:25       0.529        7.86       0.242
  WS02006113           JUNCTION      0.00  1118.06     0  02:38           0        7.34       0.030
  WS02006115           JUNCTION      0.00  1330.73     0  02:25           0        7.84       0.084
  WS02006116           JUNCTION      0.00  1330.09     0  02:25           0        7.84       0.068
  WS02006228           JUNCTION      0.00  1288.34     0  02:23           0        7.58       0.075
  WS02006229           JUNCTION      0.00  2305.43     0  02:23           0        9.91       0.074
  WS02006230           JUNCTION     10.28  1026.06     0  02:23       0.296        3.55       0.260
  WS02006231           JUNCTION      0.00   454.77     0  02:18           0        2.35      -0.160
  WS02006232           JUNCTION      0.00   453.45     0  02:21           0        2.34       0.189
  WS02006234           JUNCTION      0.00   453.17     0  02:34           0        2.33      -0.179
  WS02006235           JUNCTION      0.00   453.68     0  00:06           0        2.24       0.169
  WS02006238           JUNCTION      0.00   461.65     0  00:06           0         2.2      -0.170
  WS02006239           JUNCTION      0.00   488.54     0  00:06           0        2.19      -0.198
  WS02006240           JUNCTION      0.00   568.63     0  00:06           0        2.19      -0.043
  WS02006242           JUNCTION      0.00   620.39     0  00:05           0        2.19      -0.045
  WS02006243           JUNCTION      0.00   663.71     0  00:05           0        1.81      -0.544
  WS02006245           JUNCTION      0.00   668.41     0  00:05           0        1.82       0.777
  WS02006247           JUNCTION      0.00   668.71     0  00:05           0        1.82      -0.335
  WS02006248           JUNCTION      0.00   669.97     0  00:05           0        2.06      -0.431
  WS02006249           JUNCTION      0.00  1373.22     0  02:25           0        4.36       0.356
  WS02006251           JUNCTION      0.08  1683.17     0  02:25     0.00222        4.62      -0.123
  WS02006252           JUNCTION      0.00  2310.02     0  02:25           0        3.03      -1.432
  WS02006253           JUNCTION     42.33  1682.68     0  02:25      0.0567        3.61      -0.103
  WS02006256           JUNCTION      0.00  1500.00     0  00:20           0       0.976       3.131
  WS02006280           JUNCTION      0.00  2303.77     0  02:23           0        8.73       0.001
  WS02006284           JUNCTION      0.10  2304.51     0  02:23     0.00275        8.73       0.004
  WS02006287           JUNCTION      0.00  2304.95     0  02:23           0        8.73       0.010
  WSF200               JUNCTION      0.00  1330.32     0  02:25           0        7.72       0.010
  YS02001580           JUNCTION      0.00    69.16     0  02:11           0     0.00397       0.242
  YS02001583           JUNCTION      0.00   116.60     0  02:11           0      0.0153      -3.573
  YS02001586           JUNCTION    763.24   763.27     0  02:26        1.55        1.57       0.065
  YS02001590           JUNCTION      0.00   318.88     0  02:18           0        1.25      -0.039
  YS02001593           JUNCTION      0.00   318.37     0  02:18           0        1.25       0.011
  YS02001596           JUNCTION      0.00   318.08     0  02:26           0        1.25      -0.007
  YS02001600           JUNCTION      0.00   318.11     0  02:26           0        1.25       0.023
  YS02001601           JUNCTION   1266.52  1584.11     0  02:25        2.06        3.31       0.026
  YS02001602           JUNCTION      0.00   510.72     0  02:44           0        2.22       0.020
  YS02001605           JUNCTION      0.00   510.81     0  02:45           0        2.14       0.026
  YS02001607           JUNCTION      0.00   510.98     0  02:45           0        2.14       0.089
  YS02001610           JUNCTION      0.00   718.18     0  02:26           0         2.3       0.104
  YS02001613           JUNCTION      0.00   511.33     0  02:45           0        1.97       0.082
  YS02001616           JUNCTION      0.00   512.00     0  02:44           0        1.97       0.024
  YS02001619           JUNCTION   1316.96  1316.96     0  02:26        2.41        4.22       0.000
  YS02001622           JUNCTION      0.00   976.67     0  02:38           0        4.05       0.004
  YS02001625           JUNCTION      0.00  1312.75     0  02:26           0        4.16       0.213
  YS02001629           JUNCTION      0.00   976.89     0  02:38           0        3.57       0.027
  YS02001633           JUNCTION    980.85  1395.16     0  02:17        1.56           5       0.069
  YS02001641           JUNCTION      0.00  1391.66     0  02:17           0        4.86       0.056
  YS02001644           JUNCTION    838.02  1802.51     0  02:18        1.28        6.14       0.055
  YS02001647           JUNCTION      0.00  1814.72     0  02:18           0        5.97       0.003
  YS02001649           JUNCTION      0.00  2056.19     0  02:17           0         7.2       0.004
  YS02001652           JUNCTION      0.00   877.12     0  02:25           0        1.24      -0.071
  YS02001655           JUNCTION      0.15   877.08     0  02:25     0.00443        1.24       0.031
  YS02001658           JUNCTION      0.00   876.55     0  02:25           0        1.23       0.003
  YS02001661           JUNCTION      0.00   863.23     0  02:25           0        1.23       0.018
  YS02001664           JUNCTION    855.43   855.43     0  02:25        1.23        1.23      -0.005
  YS02001745           JUNCTION    504.12   504.12     0  02:25       0.702       0.702       0.105
  YS02001748           JUNCTION      0.04   535.53     0  02:22      0.0013       0.704      -0.184
  YS02001751           JUNCTION      0.01   520.60     0  02:25    0.000317       0.707      -0.033
  YS02001754           JUNCTION      0.26   520.89     0  02:25     0.00749       0.716      -0.113
  YS02001757           JUNCTION      0.00  3514.14     0  02:25           0        10.4       0.017
  YS02001759           JUNCTION    738.25  1437.79     0  02:24        1.03        2.49      -0.003
  YS02001762           JUNCTION      0.00   808.63     0  02:27           0        1.46       0.000
  YS02001765           JUNCTION      0.00   807.55     0  02:27           0        1.46       0.001
  YS02001767           JUNCTION      0.54   806.53     0  02:27      0.0154        1.46      -0.000
  YS02001770           JUNCTION   1016.63  1016.63     0  02:25        1.51        1.55       0.002
  YS02001774           JUNCTION      0.00   334.96     0  02:25           0       0.121       1.097
  YS02001779           JUNCTION      0.01   335.97     0  02:25    0.000144      0.0792      -0.783
  YS02001783           JUNCTION      0.00  1162.33     0  02:23           0        3.69       0.006
  YS02001784           JUNCTION      1.06  1163.34     0  02:23      0.0305        3.72       0.014
  YS02001786           JUNCTION      0.06  1163.36     0  02:23     0.00162        3.72       0.018
  YS02001788           JUNCTION      0.07  1163.47     0  02:23     0.00204        3.72       0.008
  YS02001790           JUNCTION      0.15  1176.07     0  02:24     0.00446        3.72       0.020
  YS02001791           JUNCTION      0.00  1289.61     0  02:24           0        3.72      -0.022
  YS02001793           JUNCTION      0.00  1232.85     0  02:21           0        3.72       0.005
  YS02001882           JUNCTION      0.00    33.30     0  02:16           0       0.013       5.689
  YS02001884           JUNCTION      0.00    43.01     0  02:15           0       0.049       5.464
  YS02001887           JUNCTION    772.54   772.57     0  02:25        1.06        1.09       0.418
  YS02001890           JUNCTION      0.00   771.85     0  02:25           0        1.05       0.497
  YS02001895           JUNCTION      0.00   516.71     0  02:27           0       0.988       0.162
  YS02001898           JUNCTION      0.00   516.99     0  02:26           0       0.986       0.025
  YS02001901           JUNCTION      0.00   517.62     0  02:27           0       0.988       0.334
  YS02001904           JUNCTION      0.00   516.78     0  02:27           0       0.992       0.269
  YS02001907           JUNCTION      0.00  1798.67     0  02:25           0        3.11       0.580
  YS02001910           JUNCTION      0.00  1283.91     0  02:25           0        2.12       0.334
  YS02001915           JUNCTION    842.88  1283.24     0  02:25         1.3        2.15       0.075
  YS02001918           JUNCTION      0.00   458.82     0  02:25           0       0.863       0.015
  YS02001920           JUNCTION      2.87   458.70     0  02:25      0.0827        0.85       0.104
  YS02001923           JUNCTION      0.04   452.54     0  02:25     0.00109       0.755       0.004
  YS02001926           JUNCTION      0.05   450.72     0  02:25      0.0015       0.741      -0.018
  YS02001929           JUNCTION    437.25   437.25     0  02:25       0.734       0.734      -0.104
  YS02006553           JUNCTION      0.00   801.27     0  02:36           0        2.26       0.520
  YS02006556           JUNCTION      0.00   800.91     0  02:36           0        2.27       0.341
  YS02006558           JUNCTION   1012.01  1163.22     0  02:23        1.47        3.72       0.089
  YS02006561           JUNCTION      0.00  1170.35     0  02:18           0        3.69      -0.000
  YS02163301           JUNCTION      0.00   980.46     0  02:38           0        3.57       0.043
  YS02163601           JUNCTION      0.11  1394.68     0  02:17     0.00317        4.86       0.100
  YS02164001           JUNCTION      0.00  1394.11     0  02:17           0        4.86       0.048
  YSB1154              JUNCTION    438.76   438.76     0  02:25       0.657       0.658       0.223
  YSB1171              JUNCTION      0.00  1034.21     0  02:25           0        1.25       0.529
  YSB1174              JUNCTION    365.28   365.28     0  02:25        0.49       0.491       0.265
  YSB6556              JUNCTION      0.00   438.97     0  02:25           0       0.659       0.190
  CC-1                 OUTFALL       0.00  3415.00     0  00:05           0        1.93       0.000
  CC-2                 OUTFALL       0.00  3415.00     0  00:05           0        6.43       0.000
  JK-1                 OUTFALL       0.00  5000.00     0  01:35           0         1.3       0.000
  JK-2                 OUTFALL       0.00  5000.00     0  01:35           0        1.58       0.000
  WSC                  OUTFALL       0.00  1530.81     0  02:28           0        13.5       0.000
  CC-storage           STORAGE       0.00  3514.99     0  02:25           0        12.6      -0.160
  JK-storage           STORAGE       0.00  1309.15     0  02:25           0        3.87      -0.542
  XR-storage           STORAGE     200.00   200.00     0  00:00        5.76        6.36       0.001
  
  
  **********************
  Node Surcharge Summary
  **********************
  
  Surcharging occurs when water rises above the top of the highest conduit.
  ---------------------------------------------------------------------
                                               Max. Height   Min. Depth
                                   Hours       Above Crown    Below Rim
  Node                 Type      Surcharged         Meters       Meters
  ---------------------------------------------------------------------
  HS02004478           JUNCTION        0.46          0.940        0.000
  HS02004479           JUNCTION        0.61          0.966        0.084
  HS02004480           JUNCTION        0.65          1.100        0.000
  HS02004770           JUNCTION        0.55          0.720        0.000
  HS02004777           JUNCTION        0.56          0.780        0.000
  HS02004785           JUNCTION        0.51          0.790        0.000
  HS02004788           JUNCTION        0.49          0.720        0.000
  HS02004792           JUNCTION        0.62          0.900        0.000
  HS02004799           JUNCTION        0.77          1.060        0.000
  HS02004802           JUNCTION        0.66          1.210        0.000
  HS02004807           JUNCTION        0.64          1.220        0.000
  HS02004817           JUNCTION        1.25          1.740        0.000
  HS02004824           JUNCTION        0.50          1.310        0.000
  HS02004830           JUNCTION        0.46          1.330        0.000
  HS02004837           JUNCTION        0.42          1.340        0.000
  HS02004842           JUNCTION        0.56          1.520        0.000
  HS02004848           JUNCTION        0.37          1.370        0.000
  HS02004852           JUNCTION        0.39          1.420        0.000
  HS02004856           JUNCTION        0.36          1.300        0.000
  HS02004862           JUNCTION        0.44          1.300        0.000
  HS02004870           JUNCTION        0.46          1.293        0.107
  HS02004876           JUNCTION        0.49          1.381        0.179
  HS02004881           JUNCTION        0.47          1.120        0.330
  HS02004901           JUNCTION        0.56          0.720        0.000
  WS02004401           JUNCTION        1.47          0.937        0.723
  WS02004402           JUNCTION        1.50          1.035        0.705
  WS02004403           JUNCTION        1.50          0.951        1.079
  WS02004404           JUNCTION        1.57          0.968        1.812
  WS02004405           JUNCTION        1.56          1.031        1.769
  WS02004406           JUNCTION        1.54          0.762        1.688
  WS02004409           JUNCTION        1.05          0.422        1.938
  WS02004410           JUNCTION        0.97          0.322        2.218
  WS02004411           JUNCTION        0.88          0.224        2.306
  WS02004412           JUNCTION        0.79          0.118        2.192
  WS02004413           JUNCTION        1.27          0.153        2.047
  WS02006109           JUNCTION        1.87          1.820        0.000
  WS02006110           JUNCTION        1.68          1.523        0.327
  WS02006111           JUNCTION        1.23          1.012        0.858
  WS02006112           JUNCTION        1.74          1.651        0.029
  WS02006113           JUNCTION        1.25          1.170        0.760
  WS02006115           JUNCTION        1.38          1.206        1.044
  WS02006116           JUNCTION        1.39          1.053        1.237
  WS02006228           JUNCTION        1.87          2.200        0.000
  WS02006229           JUNCTION        0.92          1.070        0.000
  WS02006230           JUNCTION        1.53          1.570        0.000
  WS02006231           JUNCTION        1.55          1.504        0.026
  WS02006232           JUNCTION        1.69          1.480        0.000
  WS02006234           JUNCTION        1.55          1.240        0.000
  WS02006235           JUNCTION        1.56          1.290        0.000
  WS02006238           JUNCTION        1.58          1.349        0.081
  WS02006239           JUNCTION        1.53          1.290        0.000
  WS02006240           JUNCTION        1.47          1.390        0.000
  WS02006242           JUNCTION        1.49          0.820        0.000
  WS02006243           JUNCTION        1.43          0.770        0.000
  WS02006245           JUNCTION        1.41          0.850        0.000
  WS02006247           JUNCTION        1.42          0.760        0.000
  WS02006248           JUNCTION        1.35          0.380        0.000
  WS02006249           JUNCTION        1.37          0.390        0.000
  WS02006251           JUNCTION        1.02          1.180        0.000
  WS02006252           JUNCTION        1.38          1.100        0.000
  WS02006253           JUNCTION        1.12          2.480        0.000
  WS02006256           JUNCTION        5.52          2.050        0.000
  WS02006280           JUNCTION        0.77          0.753        0.027
  WS02006284           JUNCTION        0.69          0.800        0.000
  WS02006287           JUNCTION        0.57          0.890        0.000
  YS02001580           JUNCTION        0.54          0.450        0.000
  YS02001583           JUNCTION        0.54          0.500        0.000
  YS02001586           JUNCTION        0.63          0.510        0.000
  YS02001590           JUNCTION        0.71          0.750        0.000
  YS02001593           JUNCTION        0.71          0.722        0.118
  YS02001596           JUNCTION        0.83          1.010        0.060
  YS02001600           JUNCTION        1.00          1.190        0.000
  YS02001601           JUNCTION        1.38          1.440        0.000
  YS02001602           JUNCTION        1.25          1.270        0.000
  YS02001605           JUNCTION        1.19          1.180        0.000
  YS02001607           JUNCTION        0.64          0.680        0.000
  YS02001610           JUNCTION        0.67          0.680        0.000
  YS02001613           JUNCTION        0.63          0.669        0.031
  YS02001616           JUNCTION        0.59          0.610        0.000
  YS02001619           JUNCTION        0.57          0.610        0.000
  YS02001622           JUNCTION        0.56          0.620        0.000
  YS02001625           JUNCTION        0.77          0.780        0.000
  YS02001629           JUNCTION        0.47          0.470        0.000
  YS02001633           JUNCTION        0.77          1.060        0.000
  YS02001641           JUNCTION        0.64          1.100        0.000
  YS02001644           JUNCTION        0.58          0.920        0.000
  YS02001647           JUNCTION        0.32          0.751        0.149
  YS02001649           JUNCTION        0.35          0.967        0.083
  YS02001652           JUNCTION        0.25          0.744        0.386
  YS02001655           JUNCTION        0.20          0.613        0.587
  YS02001658           JUNCTION        0.13          0.423        0.877
  YS02001748           JUNCTION        0.06          0.392        0.798
  YS02001751           JUNCTION        0.14          0.630        0.570
  YS02001754           JUNCTION        0.19          0.804        0.346
  YS02001757           JUNCTION        0.33          1.038        0.172
  YS02001759           JUNCTION        0.29          0.992        0.218
  YS02001762           JUNCTION        0.27          0.982        0.168
  YS02001765           JUNCTION        0.26          0.948        0.152
  YS02001767           JUNCTION        0.25          0.917        0.113
  YS02001770           JUNCTION        0.25          0.913        0.007
  YS02001774           JUNCTION        0.28          0.992        0.058
  YS02001779           JUNCTION        0.21          0.680        0.000
  YS02001783           JUNCTION        0.44          0.515        1.085
  YS02001784           JUNCTION        0.42          0.348        1.142
  YS02001786           JUNCTION        0.32          0.098        1.332
  YS02001882           JUNCTION        0.39          0.830        0.000
  YS02001884           JUNCTION        0.40          0.870        0.000
  YS02001887           JUNCTION        0.43          0.950        0.000
  YS02001890           JUNCTION        0.45          0.760        0.000
  YS02001895           JUNCTION        0.38          0.750        0.000
  YS02001898           JUNCTION        0.37          0.740        0.000
  YS02001901           JUNCTION        0.42          0.870        0.000
  YS02001904           JUNCTION        0.41          0.850        0.000
  YS02001907           JUNCTION        0.69          0.950        0.000
  YS02001910           JUNCTION        0.47          1.100        0.000
  YS02001915           JUNCTION        0.39          1.000        0.000
  YS02001918           JUNCTION        0.31          0.810        0.000
  YS02001920           JUNCTION        0.32          1.045        0.095
  YS02001923           JUNCTION        0.05          0.708        0.112
  YS02001926           JUNCTION        0.08          0.810        0.090
  YS02001929           JUNCTION        0.01          0.780        0.000
  YS02006553           JUNCTION        0.71          1.190        0.000
  YS02006556           JUNCTION        0.57          1.350        0.000
  YS02006558           JUNCTION        0.55          1.375        0.025
  YS02006561           JUNCTION        0.27          0.161        0.989
  YS02163301           JUNCTION        0.75          1.030        0.000
  YS02163601           JUNCTION        0.81          1.080        0.000
  YS02164001           JUNCTION        0.66          1.100        0.000
  YSB1154              JUNCTION        0.90          1.400        0.000
  YSB1171              JUNCTION        0.90          1.100        0.000
  YSB1174              JUNCTION        0.81          1.250        0.000
  YSB6556              JUNCTION        0.73          1.100        0.000
  
  
  *********************
  Node Flooding Summary
  *********************
  
  Flooding refers to all water that overflows a node, whether it ponds or not.
  --------------------------------------------------------------------------
                                                             Total   Maximum
                                 Maximum   Time of Max       Flood    Ponded
                        Hours       Rate    Occurrence      Volume     Depth
  Node                 Flooded       LPS   days hr:min    10^6 ltr    Meters
  --------------------------------------------------------------------------
  HS02004478              0.01      1.04      0  02:35       0.000     0.000
  HS02004480              0.01      2.18      0  02:35       0.000     0.000
  HS02004770              0.39   1349.05      0  02:25       0.747     0.000
  HS02004777              0.01     31.68      0  02:12       0.000     0.000
  HS02004785              0.01      0.27      0  02:18       0.000     0.000
  HS02004788              0.01     95.57      0  02:12       0.000     0.000
  HS02004792              0.36   2073.34      0  02:25       1.334     0.000
  HS02004799              0.17    179.85      0  02:25       0.062     0.000
  HS02004802              0.01      0.39      0  02:35       0.000     0.000
  HS02004807              0.09    389.34      0  02:25       0.078     0.000
  HS02004817              0.01      0.51      0  02:35       0.000     0.000
  HS02004824              0.03     32.95      0  02:25       0.002     0.000
  HS02004830              0.01      0.70      0  02:35       0.000     0.000
  HS02004837              0.01      0.99      0  02:35       0.000     0.000
  HS02004842              0.02     22.37      0  02:25       0.001     0.000
  HS02004848              0.01      0.86      0  02:35       0.000     0.000
  HS02004852              0.01    290.80      0  02:16       0.000     0.000
  HS02004856              0.01    110.04      0  02:16       0.000     0.000
  HS02004862              0.01     10.94      0  02:25       0.000     0.000
  HS02004901              0.44    682.39      0  02:25       0.693     0.000
  WS02006109              0.39    323.54      0  02:25       0.256     0.000
  WS02006228              0.01      2.43      0  02:35       0.000     0.000
  WS02006229              0.01      0.25      0  02:35       0.000     0.000
  WS02006230              0.70    573.26      0  02:23       0.926     0.000
  WS02006232              0.18      3.61      0  02:35       0.000     0.000
  WS02006234              0.74    128.45      0  02:30       0.261     0.000
  WS02006235              0.01     14.70      0  02:00       0.000     0.000
  WS02006239              0.01     89.85      0  01:45       0.000     0.000
  WS02006240              0.01    149.66      0  01:45       0.000     0.000
  WS02006242              0.87    171.65      0  00:05       0.372     0.000
  WS02006243              0.01    279.81      0  01:45       0.001     0.000
  WS02006245              0.01    386.84      0  01:45       0.001     0.000
  WS02006247              0.01    240.02      0  01:45       0.001     0.000
  WS02006248              1.21    339.25      0  02:10       1.196     0.000
  WS02006249              1.25   1312.37      0  02:25       3.237     0.000
  WS02006251              0.01    550.79      0  03:05       0.002     0.000
  WS02006252              0.53   2309.98      0  02:25       2.059     0.000
  WS02006253              0.01    489.09      0  03:10       0.001     0.000
  WS02006256              0.55   1492.29      0  02:05       0.749     0.000
  WS02006284              0.01      0.38      0  02:35       0.000     0.000
  WS02006287              0.01      1.31      0  02:35       0.000     0.000
  YS02001580              0.01     35.34      0  02:12       0.000     0.000
  YS02001583              0.01     48.67      0  02:12       0.000     0.000
  YS02001586              0.42    445.63      0  02:26       0.306     0.000
  YS02001590              0.01      6.77      0  02:12       0.000     0.000
  YS02001600              0.01      1.82      0  02:12       0.000     0.000
  YS02001601              0.56   1185.92      0  02:25       1.089     0.000
  YS02001602              0.37     61.97      0  02:27       0.076     0.000
  YS02001605              0.01      0.23      0  02:18       0.000     0.000
  YS02001607              0.01      0.05      0  02:35       0.000     0.000
  YS02001610              0.33    718.11      0  02:26       0.494     0.000
  YS02001616              0.01      5.31      0  02:35       0.000     0.000
  YS02001619              0.01      6.37      0  02:35       0.000     0.000
  YS02001622              0.01      0.64      0  02:18       0.000     0.000
  YS02001625              0.28   1312.50      0  02:26       0.717     0.000
  YS02001629              0.10    133.12      0  02:23       0.029     0.000
  YS02001633              0.01      1.98      0  02:18       0.000     0.000
  YS02001641              0.01      2.01      0  02:18       0.000     0.000
  YS02001644              0.11    694.98      0  02:25       0.164     0.000
  YS02001779              0.10    335.50      0  02:25       0.063     0.000
  YS02001882              0.01      0.92      0  02:35       0.000     0.000
  YS02001884              0.01      1.01      0  02:35       0.000     0.000
  YS02001887              0.01      0.67      0  02:35       0.000     0.000
  YS02001890              0.14    257.24      0  02:25       0.060     0.000
  YS02001895              0.01      0.56      0  02:35       0.000     0.000
  YS02001898              0.01      1.35      0  02:35       0.000     0.000
  YS02001901              0.01      0.70      0  02:35       0.000     0.000
  YS02001904              0.01      1.41      0  02:35       0.000     0.000
  YS02001907              0.26   1628.30      0  02:25       0.834     0.000
  YS02001910              0.01      0.86      0  02:18       0.000     0.000
  YS02001915              0.01      1.01      0  02:18       0.000     0.000
  YS02001918              0.01     72.23      0  02:19       0.000     0.000
  YS02001929              0.01    193.17      0  02:19       0.000     0.000
  YS02006553              0.01      1.59      0  02:18       0.000     0.000
  YS02006556              0.01      2.14      0  02:18       0.000     0.000
  YS02163301              0.01      1.18      0  02:18       0.000     0.000
  YS02163601              0.01      1.59      0  02:18       0.000     0.000
  YS02164001              0.01      3.71      0  02:18       0.000     0.000
  YSB1171                 0.26   1034.11      0  02:25       0.512     0.000
  YSB1174                 0.01      0.54      0  02:18       0.000     0.000
  YSB6556                 0.01      0.68      0  02:18       0.000     0.000
  
  
  **********************
  Storage Volume Summary
  **********************
  
  --------------------------------------------------------------------------------------------------
                         Average     Avg  Evap Exfil       Maximum     Max    Time of Max    Maximum
                          Volume    Pcnt  Pcnt  Pcnt        Volume    Pcnt     Occurrence    Outflow
  Storage Unit           1000 m3    Full  Loss  Loss       1000 m3    Full    days hr:min        LPS
  --------------------------------------------------------------------------------------------------
  CC-storage               1.460      23     0     0         2.229      35       0  00:00    7830.00
  JK-storage               0.071      24     0     0         0.213      73       0  02:34   11500.00
  XR-storage               0.943      65     0     0         1.111      77       0  08:00     380.00
  
  
  ***********************
  Outfall Loading Summary
  ***********************
  
  -----------------------------------------------------------
                         Flow       Avg       Max       Total
                         Freq      Flow      Flow      Volume
  Outfall Node           Pcnt       LPS       LPS    10^6 ltr
  -----------------------------------------------------------
  CC-1                   3.67   2779.65   3415.00       1.934
  CC-2                  11.40   3210.27   3415.00       6.431
  JK-1                   2.38   2960.16   5000.00       1.300
  JK-2                   2.07   4614.68   5000.00       1.578
  WSC                   99.94    649.92   1530.81      13.526
  -----------------------------------------------------------
  System                23.89  14214.68   1530.81      24.769
  
  
  ********************
  Link Flow Summary
  ********************
  
  -----------------------------------------------------------------------------
                                 Maximum  Time of Max   Maximum    Max/    Max/
                                  |Flow|   Occurrence   |Veloc|    Full    Full
  Link                 Type          LPS  days hr:min     m/sec    Flow   Depth
  -----------------------------------------------------------------------------
  1                    CONDUIT   1530.81     0  02:28      3.71    0.53    0.52
  HS02004478WS02006287 CONDUIT   2304.95     0  02:23      2.60    0.65    1.00
  HS02004479HS02004480 CONDUIT    408.39     0  02:18      0.58    0.39    1.00
  HS02004480HS02004478 CONDUIT   2052.71     0  02:15      2.93    8.65    1.00
  HS02004770HS02004777 CONDUIT    695.83     0  02:12      0.99    1.27    1.00
  HS02004777HS02004785 CONDUIT    710.06     0  02:12      1.08    0.87    1.00
  HS02004785HS02004788 CONDUIT    638.35     0  02:13      1.36    4.81    1.00
  HS02004788HS02004792 CONDUIT    846.69     0  02:13      1.43    0.56    1.00
  HS02004792HS02004799 CONDUIT   1625.33     0  02:13      2.32    0.99    1.00
  HS02004799HS02004480 CONDUIT   1741.77     0  02:13      2.49    2.20    1.00
  HS02004802HS02004478 CONDUIT   1232.93     0  02:26      1.76    1.09    1.00
  HS02004807HS02004802 CONDUIT   1232.88     0  02:26      1.76    2.35    1.00
  HS02004817HS02004807 CONDUIT   1195.95     0  02:26      1.71    0.71    1.00
  HS02004817HS02004824 CONDUIT   1195.48     0  02:26      1.71    0.54    1.00
  HS02004824HS02004830 CONDUIT    559.12     0  02:13      0.82    0.73    1.00
  HS02004830HS02004837 CONDUIT    563.65     0  02:13      0.89    0.56    1.00
  HS02004837HS02004842 CONDUIT    719.67     0  02:16      1.03    0.43    1.00
  HS02004842HS02004848 CONDUIT    720.58     0  02:16      1.07    0.42    1.00
  HS02004848HS02004852 CONDUIT    955.44     0  02:15      1.51    1.08    1.00
  HS02004852HS02004856 CONDUIT    895.53     0  02:15      1.41    1.02    1.00
  HS02004856HS02004862 CONDUIT    912.45     0  02:15      1.52    0.91    1.00
  HS02004862HS02004870 CONDUIT   1062.42     0  02:15      1.71    1.15    1.00
  HS02004870HS02004876 CONDUIT   1275.00     0  02:15      1.96    0.85    1.00
  HS02004876HS02004881 CONDUIT   1509.72     0  02:25      2.91   16.06    1.00
  HS02004881HS02006253 CONDUIT   1640.36     0  02:25      2.52    0.32    1.00
  HS02004901HS02004770 CONDUIT    265.79     0  02:36      0.38    1.00    1.00
  WS02001211WS02001212 CONDUIT    211.89     0  03:14      0.54    0.16    0.70
  WS02001212WS02001213 CONDUIT    217.76     0  03:13      1.04    0.34    0.57
  WS02001213WS02003059 CONDUIT    224.52     0  03:13      0.47    0.37    0.90
  WS02003059WS02003060 CONDUIT    231.50     0  03:13      0.66    0.15    0.82
  WS02003060WS02003069 CONDUIT   1528.15     0  02:26      2.09    0.60    0.62
  WS02003066WSF200     CONDUIT   1330.32     0  02:25      3.26    0.22    0.39
  WS02003067WS02003066 CONDUIT   1330.24     0  02:25      2.03    0.43    0.56
  WS02003069WS02003072 CONDUIT   1528.14     0  02:27      1.90    0.74    0.67
  WS02003072WS02003073 CONDUIT   1528.41     0  02:27      2.06    3.30    0.62
  WS02004138WS02004139 CONDUIT    190.77     0  00:29      2.15    0.04    0.42
  WS02004139WS02001211 CONDUIT    197.12     0  03:00      0.54    0.25    0.61
  WS02004401WS02004402 CONDUIT   1330.18     0  02:25      1.69    1.60    1.00
  WS02004402WS02004403 CONDUIT   1330.46     0  02:25      1.69    1.91    1.00
  WS02004403WS02004404 CONDUIT   1330.99     0  02:25      1.69    0.96    1.00
  WS02004404WS02004405 CONDUIT   1331.00     0  02:25      1.69   13.04    1.00
  WS02004405WS02004406 CONDUIT   1330.85     0  02:25      1.69    2.63    1.00
  WS02004406WS02004407 CONDUIT   1331.21     0  02:25      1.70    0.59    0.99
  WS02004407WS02004409 CONDUIT   1329.46     0  02:25      1.70    0.47    0.99
  WS02004409WS02004410 CONDUIT   1329.93     0  02:25      1.69    1.72    1.00
  WS02004410WS02004411 CONDUIT   1329.85     0  02:25      1.69    1.82    1.00
  WS02004411WS02004412 CONDUIT   1329.78     0  02:25      1.69    1.89    1.00
  WS02004412WS02004413 CONDUIT   1329.60     0  02:25      1.69    0.89    1.00
  WS02004413WS02003067 CONDUIT   1329.67     0  02:25      2.05    0.57    0.77
  WS02006109WS02006110 CONDUIT   1117.98     0  02:38      2.22    2.15    1.00
  WS02006110WS02006113 CONDUIT   1118.06     0  02:38      2.22    1.02    1.00
  WS02006111WS02006112 CONDUIT   1118.16     0  02:38      2.22    0.53    1.00
  WS02006112WS02006115 CONDUIT   1330.73     0  02:25      1.69    0.79    1.00
  WS02006113WS02006111 CONDUIT   1118.31     0  02:38      2.63    1.34    1.00
  WS02006115WS02006116 CONDUIT   1330.09     0  02:25      1.69    1.71    1.00
  WS02006116WS02004401 CONDUIT   1330.15     0  02:24      1.69    1.83    1.00
  WS02006228WS02006109 CONDUIT   1288.20     0  02:23      2.56    5.63    1.00
  WS02006229WS02006228 CONDUIT   1288.34     0  02:23      2.56    4.27    1.00
  WS02006230WS02006229 CONDUIT   1015.78     0  02:23      2.64   22.61    1.00
  WS02006231WS02006230 CONDUIT    454.77     0  02:18      1.34    6.90    1.00
  WS02006232WS02006231 CONDUIT    453.45     0  02:21      1.18    0.95    1.00
  WS02006234WS02006232 CONDUIT    453.17     0  02:34      1.41    0.92    1.00
  WS02006235WS02006234 CONDUIT    446.61     0  00:06      1.39    4.71    1.00
  WS02006238WS02006235 CONDUIT    453.68     0  00:06      1.45    1.01    1.00
  WS02006239WS02006238 CONDUIT    461.65     0  00:06      1.26    1.48    1.00
  WS02006240WS02006239 CONDUIT    488.54     0  00:06      1.35    1.54    1.00
  WS02006242WS02006240 CONDUIT    568.63     0  00:06      1.58    2.26    1.00
  WS02006243WS02006242 CONDUIT    620.39     0  00:05      1.62    1.33    1.00
  WS02006245WS02006243 CONDUIT    663.71     0  00:05      1.76    1.96    1.00
  WS02006247WS02006245 CONDUIT    668.41     0  00:05      1.74    5.30    1.00
  WS02006248WS02006247 CONDUIT    668.71     0  00:05      1.74    1.46    1.00
  WS02006249WS02006248 CONDUIT    669.97     0  00:05      1.75    3.67    1.00
  WS02006251WS02006249 CONDUIT   1373.22     0  02:25      3.57    3.96    1.00
  WS02006252WS02006251 CONDUIT   1003.64     0  03:10    >50.00    3.68    1.00
  WS02006253WS02006251 CONDUIT   1683.10     0  02:25      4.37    5.05    1.00
  WS02006256WS02006235 CONDUIT    288.93     0  00:00      4.23    3.06    1.00
  WS02006280WS02006229 CONDUIT   2305.43     0  02:23      4.13    0.49    1.00
  WS02006284WS02006280 CONDUIT   2303.77     0  02:23      3.00    0.96    1.00
  WS02006287WS02006284 CONDUIT   2304.42     0  02:23      2.93    1.07    1.00
  WSF200WS02003060     CONDUIT   1330.54     0  02:25      2.30    0.30    0.51
  YS02001580YS02001583 CONDUIT     69.16     0  02:11      0.51    0.27    1.00
  YS02001583YS02001586 CONDUIT    116.60     0  02:11      0.51    0.18    1.00
  YS02001586YS02001590 CONDUIT    318.88     0  02:18      1.27    0.56    1.00
  YS02001590YS02001593 CONDUIT    318.37     0  02:18      1.13    2.00    1.00
  YS02001593YS02001596 CONDUIT    318.08     0  02:26      1.78    0.50    1.00
  YS02001596YS02001600 CONDUIT    318.11     0  02:26      1.27    0.62    1.00
  YS02001600YS02001601 CONDUIT    318.25     0  02:18      1.13    0.55    1.00
  YS02001601YS02001602 CONDUIT    510.72     0  02:44      1.81    1.84    1.00
  YS02001602YS02001605 CONDUIT    510.81     0  02:45      1.81   10.81    1.00
  YS02001605YS02001607 CONDUIT    510.98     0  02:45      1.81    2.80    1.00
  YS02001607YS02001610 CONDUIT    511.82     0  02:44      0.65    0.49    1.00
  YS02001610YS02001613 CONDUIT    511.33     0  02:45      0.65    0.59    1.00
  YS02001613YS02001616 CONDUIT    512.00     0  02:44      0.65    0.44    1.00
  YS02001616YS02001619 CONDUIT    512.06     0  02:45      0.69    0.89    1.00
  YS02001619YS02001622 CONDUIT    976.67     0  02:38      1.24    1.44    1.00
  YS02001622YS02001625 CONDUIT    976.44     0  02:38      1.24    0.52    1.00
  YS02001625YS02001629 CONDUIT    976.89     0  02:38      1.24    0.46    1.00
  YS02001629YS02163301 CONDUIT    980.46     0  02:38      1.25    1.21    1.00
  YS02001633YS02163601 CONDUIT   1394.57     0  02:17      1.78    1.46    1.00
  YS02001641YS02001644 CONDUIT   1399.39     0  02:18      1.78    4.52    1.00
  YS02001644YS02001647 CONDUIT   1814.72     0  02:18      2.31    1.07    1.00
  YS02001647YS02001649 CONDUIT   1829.66     0  02:18      2.34    0.97    1.00
  YS02001649YS02001757 CONDUIT   2055.01     0  02:17      2.62    1.25    1.00
  YS02001652YS02001649 CONDUIT    876.62     0  02:25      1.12    0.43    1.00
  YS02001655YS02001652 CONDUIT    877.12     0  02:25      1.23    0.43    1.00
  YS02001658YS02001655 CONDUIT    876.92     0  02:25      1.84    0.37    1.00
  YS02001661YS02001658 CONDUIT    876.55     0  02:25      2.30    0.34    1.00
  YS02001664YS02001661 CONDUIT    863.23     0  02:25      2.31    0.27    0.73
  YS02001745YS02001748 CONDUIT    535.49     0  02:22      2.11    0.21    0.86
  YS02001748YS02001751 CONDUIT    520.59     0  02:25      1.63    0.26    1.00
  YS02001751YS02001754 CONDUIT    520.63     0  02:25      1.34    0.25    1.00
  YS02001754YS02001757 CONDUIT    520.62     0  02:25      0.66    0.21    1.00
  YS02001757CaochengTiaoxuchi CONDUIT   3514.99     0  02:25      5.55    1.52    0.90
  YS02001759YS02001757 CONDUIT   1436.77     0  02:24      1.83    1.02    1.00
  YS02001762YS02001759 CONDUIT    809.35     0  02:27      1.03    0.93    1.00
  YS02001765YS02001762 CONDUIT    808.63     0  02:27      1.03    0.76    1.00
  YS02001767YS02001765 CONDUIT    807.55     0  02:27      1.03    1.02    1.00
  YS02001770YS02001767 CONDUIT    806.00     0  02:27      1.03    3.19    1.00
  YS02001774YS02001770 CONDUIT    334.96     0  02:25      0.43    0.21    1.00
  YS02001779YS02001774 CONDUIT    335.96     0  02:25      0.43    0.17    1.00
  YS02001783YS02001784 CONDUIT   1162.28     0  02:23      2.31    1.60    1.00
  YS02001784YS02001785 CONDUIT   1163.30     0  02:23      2.31    2.71    1.00
  YS02001786YS02001788 CONDUIT   1163.40     0  02:23      2.48    2.24    0.89
  YS02001788YS02001790 CONDUIT   1175.91     0  02:24      2.72    0.87    0.84
  YS02001790YS02001791 CONDUIT   1289.61     0  02:24      3.43    1.40    0.70
  YS02001791YS02001793 CONDUIT   1232.85     0  02:21      6.76    0.53    0.44
  YS02001793JiankangQianchi CONDUIT   1309.15     0  02:25      2.61    0.10    0.65
  YS02001882YS02001884 CONDUIT     33.30     0  02:16      0.14    0.04    1.00
  YS02001884YS02001887 CONDUIT     43.01     0  02:15      0.10    0.06    1.00
  YS02001887YS02001890 CONDUIT    771.85     0  02:25      0.98    1.32    1.00
  YS02001890YS02001895 CONDUIT    516.71     0  02:27      0.66    0.24    1.00
  YS02001895YS02001898 CONDUIT    516.99     0  02:26      0.66    0.90    1.00
  YS02001898YS02001901 CONDUIT    517.62     0  02:27      0.66    0.33    1.00
  YS02001901YS02001904 CONDUIT    516.78     0  02:27      0.66    0.80    1.00
  YS02001904YS02001907 CONDUIT    516.78     0  02:26      0.66    0.18    1.00
  YS02001907YS02006553 CONDUIT    801.27     0  02:36      0.89    0.94    1.00
  YS02001910YS02001907 CONDUIT   1283.33     0  02:25      1.63    0.72    1.00
  YS02001915YS02001910 CONDUIT   1283.91     0  02:25      1.63    0.64    1.00
  YS02001918YS02001915 CONDUIT    458.99     0  02:25      0.58    0.25    1.00
  YS02001920YS02001918 CONDUIT    458.82     0  02:25      0.66    0.44    1.00
  YS02001923YS02001920 CONDUIT    455.83     0  02:25      0.71    0.20    1.00
  YS02001926YS02001923 CONDUIT    452.51     0  02:25      0.96    0.65    1.00
  YS02001929YS02001926 CONDUIT    450.67     0  02:25      1.10    0.21    1.00
  YS02006553YS02006556 CONDUIT    800.91     0  02:36      1.02    0.69    1.00
  YS02006556YS02006558 CONDUIT    803.58     0  02:36      1.02    0.63    1.00
  YS02006558YS02006561 CONDUIT   1170.35     0  02:18      4.14    2.59    1.00
  YS02006561YS02001783 CONDUIT   1162.33     0  02:23      2.31    0.60    1.00
  YS02163301YS02001633 CONDUIT    980.47     0  02:38      1.25    0.92    1.00
  YS02163601YS02164001 CONDUIT   1394.11     0  02:17      1.78    1.24    1.00
  YS02164001YS02001641 CONDUIT   1391.66     0  02:17      1.77    1.90    1.00
  YSB1154YSB6556       CONDUIT    438.97     0  02:25      1.14    0.79    1.00
  YSB1171HS02004479    CONDUIT    402.05     0  02:18      0.80    0.27    1.00
  YSB1174YSB1171       CONDUIT    365.28     0  02:25      0.95    0.56    1.00
  YSB6556YSB1171       CONDUIT    440.09     0  02:25      1.14    0.45    1.00
  CC-R1                PUMP      3415.00     0  00:05              5.00
  CC-R2                PUMP      3415.00     0  00:05              5.00
  CC-S1                PUMP      1000.00     0  01:25              5.00
  CC-S2                PUMP      1000.00     0  00:05              5.00
  JK-R1                PUMP      5000.00     0  01:35              5.00
  JK-R2                PUMP      5000.00     0  01:35              5.00
  JK-S                 PUMP      1500.00     0  00:20              5.00
  XR-1                 PUMP        95.00     0  00:00              1.00
  XR-2                 PUMP        95.00     0  00:00              1.00
  XR-3                 PUMP        95.00     0  00:00              1.00
  XR-4                 PUMP        95.00     0  00:00              1.00
  
  
  ***************************
  Flow Classification Summary
  ***************************
  
  -------------------------------------------------------------------------------------
                      Adjusted    ---------- Fraction of Time in Flow Class ---------- 
                       /Actual         Up    Down  Sub   Sup   Up    Down  Norm  Inlet 
  Conduit               Length    Dry  Dry   Dry   Crit  Crit  Crit  Crit  Ltd   Ctrl  
  -------------------------------------------------------------------------------------
  1                       1.00   0.00  0.00  0.00  0.00  1.00  0.00  0.00  0.32  0.00
  HS02004478WS02006287    1.00   0.10  0.00  0.00  0.57  0.33  0.00  0.00  0.59  0.00
  HS02004479HS02004480    1.00   0.04  0.00  0.00  0.96  0.00  0.00  0.00  0.11  0.00
  HS02004480HS02004478    1.00   0.09  0.00  0.00  0.51  0.00  0.00  0.40  0.00  0.00
  HS02004770HS02004777    1.00   0.00  0.09  0.00  0.91  0.00  0.00  0.00  0.02  0.00
  HS02004777HS02004785    1.00   0.00  0.00  0.00  1.00  0.00  0.00  0.00  0.11  0.00
  HS02004785HS02004788    1.00   0.00  0.00  0.00  1.00  0.00  0.00  0.00  0.00  0.00
  HS02004788HS02004792    1.00   0.00  0.00  0.00  0.99  0.01  0.00  0.00  0.90  0.00
  HS02004792HS02004799    1.00   0.00  0.00  0.00  0.99  0.01  0.00  0.00  0.85  0.00
  HS02004799HS02004480    1.00   0.00  0.04  0.00  0.90  0.00  0.06  0.00  0.00  0.00
  HS02004802HS02004478    1.00   0.09  0.00  0.00  0.91  0.00  0.00  0.00  0.02  0.00
  HS02004807HS02004802    1.00   0.09  0.00  0.00  0.90  0.00  0.00  0.01  0.00  0.00
  HS02004817HS02004807    1.00   0.00  0.09  0.00  0.91  0.00  0.00  0.00  0.01  0.00
  HS02004817HS02004824    1.00   0.00  0.00  0.00  1.00  0.00  0.00  0.00  0.81  0.00
  HS02004824HS02004830    1.00   0.00  0.00  0.00  1.00  0.00  0.00  0.00  0.01  0.00
  HS02004830HS02004837    1.00   0.00  0.00  0.00  1.00  0.00  0.00  0.00  0.88  0.00
  HS02004837HS02004842    1.00   0.00  0.00  0.00  1.00  0.00  0.00  0.00  0.11  0.00
  HS02004842HS02004848    1.00   0.00  0.09  0.00  0.91  0.00  0.00  0.00  0.56  0.00
  HS02004848HS02004852    1.00   0.09  0.00  0.00  0.91  0.00  0.00  0.00  0.69  0.00
  HS02004852HS02004856    1.00   0.09  0.00  0.00  0.91  0.00  0.00  0.00  0.67  0.00
  HS02004856HS02004862    1.00   0.00  0.10  0.00  0.90  0.00  0.00  0.00  0.74  0.00
  HS02004862HS02004870    1.00   0.00  0.00  0.00  1.00  0.00  0.00  0.00  0.03  0.00
  HS02004870HS02004876    1.00   0.00  0.00  0.00  1.00  0.00  0.00  0.00  0.90  0.00
  HS02004876HS02004881    1.00   0.01  0.00  0.00  0.74  0.26  0.00  0.00  0.00  0.00
  HS02004881HS02006253    1.00   0.00  0.01  0.00  0.37  0.05  0.00  0.57  0.13  0.00
  HS02004901HS02004770    1.00   0.09  0.00  0.00  0.91  0.00  0.00  0.00  0.00  0.00
  WS02001211WS02001212    1.00   0.00  0.03  0.00  0.97  0.00  0.00  0.00  0.00  0.00
  WS02001212WS02001213    1.00   0.03  0.00  0.00  0.47  0.00  0.50  0.00  0.00  0.00
  WS02001213WS02003059    1.00   0.00  0.00  0.00  0.99  0.00  0.00  0.00  0.00  0.00
  WS02003059WS02003060    1.00   0.00  0.00  0.00  1.00  0.00  0.00  0.00  0.03  0.00
  WS02003060WS02003069    1.00   0.00  0.00  0.00  0.99  0.01  0.00  0.00  0.55  0.00
  WS02003066WSF200        1.00   0.06  0.00  0.00  0.00  0.94  0.00  0.00  0.68  0.00
  WS02003067WS02003066    1.00   0.06  0.00  0.00  0.94  0.00  0.00  0.00  0.00  0.00
  WS02003069WS02003072    1.00   0.00  0.00  0.00  1.00  0.00  0.00  0.00  0.69  0.00
  WS02003072WS02003073    1.00   0.00  0.00  0.00  0.00  0.00  0.00  1.00  0.00  0.00
  WS02004138WS02004139    1.00   0.00  0.01  0.00  0.97  0.01  0.00  0.02  0.98  0.00
  WS02004139WS02001211    1.00   0.00  0.00  0.00  0.99  0.00  0.00  0.00  0.00  0.00
  WS02004401WS02004402    1.00   0.03  0.00  0.00  0.97  0.00  0.00  0.00  0.00  0.00
  WS02004402WS02004403    1.00   0.03  0.00  0.00  0.97  0.00  0.00  0.00  0.00  0.00
  WS02004403WS02004404    1.00   0.00  0.03  0.00  0.97  0.00  0.00  0.00  0.00  0.00
[...]
  WS02006284WS02006280    1.00   0.09  0.00  0.00  0.19  0.02  0.00  0.70  0.00  0.00
  WS02006287WS02006284    1.00   0.08  0.02  0.00  0.48  0.42  0.00  0.00  0.64  0.00
  WSF200WS02003060        1.00   0.00  0.06  0.00  0.51  0.43  0.00  0.00  0.66  0.00
  YS02001580YS02001583    1.00   0.29  0.39  0.00  0.32  0.00  0.00  0.00  0.64  0.00
  YS02001583YS02001586    1.00   0.30  0.32  0.00  0.37  0.00  0.00  0.00  0.64  0.00
  YS02001586YS02001590    1.00   0.09  0.00  0.00  0.63  0.02  0.00  0.26  0.36  0.00
  YS02001590YS02001593    1.00   0.09  0.00  0.00  0.19  0.00  0.72  0.00  0.00  0.00
  YS02001593YS02001596    1.00   0.09  0.00  0.00  0.23  0.02  0.00  0.67  0.02  0.00
  YS02001596YS02001600    1.00   0.09  0.00  0.00  0.36  0.03  0.00  0.52  0.05  0.00
  YS02001600YS02001601    1.00   0.09  0.00  0.00  0.91  0.00  0.00  0.00  0.61  0.00
  YS02001601YS02001602    1.00   0.09  0.00  0.00  0.91  0.00  0.00  0.00  0.00  0.00
  YS02001602YS02001605    1.00   0.09  0.00  0.00  0.91  0.00  0.00  0.00  0.00  0.00
  YS02001605YS02001607    1.00   0.09  0.00  0.00  0.91  0.00  0.00  0.00  0.00  0.00
  YS02001607YS02001610    1.00   0.09  0.00  0.00  0.91  0.00  0.00  0.00  0.01  0.00
  YS02001610YS02001613    1.00   0.09  0.00  0.00  0.91  0.00  0.00  0.00  0.00  0.00
  YS02001613YS02001616    1.00   0.09  0.00  0.00  0.91  0.00  0.00  0.00  0.00  0.00
  YS02001616YS02001619    1.00   0.09  0.00  0.00  0.91  0.00  0.00  0.00  0.00  0.00
  YS02001619YS02001622    1.00   0.09  0.00  0.00  0.91  0.00  0.00  0.00  0.33  0.00
  YS02001622YS02001625    1.00   0.09  0.00  0.00  0.91  0.00  0.00  0.00  0.04  0.00
  YS02001625YS02001629    1.00   0.09  0.03  0.00  0.27  0.00  0.62  0.00  0.00  0.00
  YS02001629YS02163301    1.00   0.10  0.01  0.00  0.90  0.00  0.00  0.00  0.00  0.00
  YS02001633YS02163601    1.00   0.00  0.01  0.00  0.99  0.00  0.00  0.00  0.15  0.00
  YS02001641YS02001644    1.00   0.00  0.01  0.00  0.99  0.00  0.00  0.00  0.00  0.00
  YS02001644YS02001647    1.00   0.00  0.11  0.00  0.89  0.00  0.00  0.00  0.00  0.00
  YS02001647YS02001649    1.00   0.00  0.11  0.00  0.46  0.43  0.00  0.00  0.57  0.00
  YS02001649YS02001757    1.00   0.00  0.00  0.00  0.49  0.51  0.00  0.00  0.57  0.00
  YS02001652YS02001649    1.00   0.00  0.00  0.00  0.98  0.02  0.00  0.00  0.75  0.00
  YS02001655YS02001652    1.00   0.00  0.00  0.00  0.30  0.04  0.00  0.66  0.09  0.00
  YS02001658YS02001655    1.00   0.00  0.09  0.00  0.48  0.43  0.00  0.00  0.74  0.00
  YS02001661YS02001658    1.00   0.09  0.00  0.00  0.34  0.57  0.00  0.00  0.73  0.00
  YS02001664YS02001661    1.00   0.09  0.00  0.00  0.65  0.26  0.00  0.00  0.86  0.00
  YS02001745YS02001748    1.00   0.00  0.00  0.00  0.05  0.01  0.00  0.94  0.01  0.00
  YS02001748YS02001751    1.00   0.00  0.00  0.00  0.60  0.40  0.00  0.00  0.80  0.00
  YS02001751YS02001754    1.00   0.00  0.00  0.00  0.18  0.03  0.00  0.80  0.05  0.00
  YS02001754YS02001757    1.00   0.00  0.00  0.00  1.00  0.00  0.00  0.00  0.87  0.00
  YS02001757CaochengTiaoxuchi    1.00   0.00  0.00  0.00  0.69  0.31  0.00  0.00  0.89  0.00
  YS02001759YS02001757    1.00   0.00  0.00  0.00  1.00  0.00  0.00  0.00  0.61  0.00
  YS02001762YS02001759    1.00   0.00  0.00  0.00  1.00  0.00  0.00  0.00  0.04  0.00
  YS02001765YS02001762    1.00   0.00  0.00  0.00  1.00  0.00  0.00  0.00  0.72  0.00
  YS02001767YS02001765    1.00   0.00  0.00  0.00  1.00  0.00  0.00  0.00  0.00  0.00
  YS02001770YS02001767    1.00   0.00  0.00  0.00  1.00  0.00  0.00  0.00  0.00  0.00
  YS02001774YS02001770    1.00   0.00  0.09  0.00  0.75  0.00  0.16  0.00  0.03  0.00
  YS02001779YS02001774    1.00   0.00  0.00  0.00  1.00  0.00  0.00  0.00  0.79  0.00
  YS02001783YS02001784    1.00   0.00  0.12  0.00  0.88  0.00  0.00  0.00  0.57  0.00
  YS02001784YS02001785    1.00   0.00  0.00  0.00  1.00  0.00  0.00  0.00  0.16  0.00
  YS02001786YS02001788    1.00   0.00  0.00  0.00  0.61  0.39  0.00  0.00  0.00  0.00
  YS02001788YS02001790    1.00   0.00  0.00  0.00  0.16  0.84  0.00  0.00  0.80  0.00
  YS02001790YS02001791    1.00   0.00  0.00  0.00  0.02  0.98  0.00  0.00  0.17  0.00
  YS02001791YS02001793    1.00   0.00  0.00  0.00  0.00  1.00  0.00  0.00  0.01  0.00
  YS02001793JiankangQianchi    1.00   0.00  0.00  0.00  0.96  0.04  0.00  0.00  0.98  0.00
  YS02001882YS02001884    1.00   0.10  0.00  0.00  0.90  0.00  0.00  0.00  0.00  0.00
  YS02001884YS02001887    1.00   0.05  0.03  0.00  0.92  0.00  0.00  0.00  0.00  0.00
  YS02001887YS02001890    1.00   0.00  0.00  0.00  0.96  0.00  0.03  0.00  0.00  0.00
  YS02001890YS02001895    1.00   0.00  0.10  0.00  0.90  0.00  0.00  0.00  0.00  0.00
  YS02001895YS02001898    1.00   0.10  0.00  0.00  0.88  0.00  0.02  0.00  0.00  0.00
  YS02001898YS02001901    1.00   0.10  0.00  0.00  0.90  0.00  0.00  0.00  0.01  0.00
  YS02001901YS02001904    1.00   0.10  0.00  0.00  0.90  0.00  0.00  0.00  0.00  0.00
  YS02001904YS02001907    1.00   0.00  0.10  0.00  0.90  0.00  0.00  0.00  0.00  0.00
  YS02001907YS02006553    1.00   0.00  0.03  0.00  0.97  0.00  0.00  0.00  0.00  0.00
  YS02001910YS02001907    1.00   0.00  0.00  0.00  0.97  0.00  0.00  0.03  0.12  0.00
  YS02001915YS02001910    1.00   0.00  0.00  0.00  0.97  0.03  0.00  0.00  0.15  0.00
  YS02001918YS02001915    1.00   0.00  0.00  0.00  0.97  0.02  0.00  0.00  0.76  0.00
  YS02001920YS02001918    1.00   0.00  0.00  0.00  1.00  0.00  0.00  0.00  0.00  0.00
  YS02001923YS02001920    1.00   0.00  0.00  0.00  1.00  0.00  0.00  0.00  0.93  0.00
  YS02001926YS02001923    1.00   0.00  0.06  0.00  0.08  0.00  0.86  0.00  0.00  0.00
  YS02001929YS02001926    1.00   0.00  0.09  0.00  0.91  0.00  0.00  0.00  0.83  0.00
  YS02006553YS02006556    1.00   0.01  0.00  0.00  0.99  0.00  0.00  0.00  0.03  0.00
  YS02006556YS02006558    1.00   0.00  0.00  0.00  1.00  0.00  0.00  0.00  0.00  0.00
  YS02006558YS02006561    1.00   0.12  0.00  0.00  0.07  0.81  0.00  0.00  0.18  0.00
  YS02006561YS02001783    1.00   0.12  0.00  0.00  0.13  0.75  0.00  0.00  0.70  0.00
  YS02163301YS02001633    1.00   0.00  0.10  0.00  0.90  0.00  0.00  0.00  0.00  0.00
  YS02163601YS02164001    1.00   0.00  0.07  0.00  0.93  0.00  0.00  0.00  0.00  0.00
  YS02164001YS02001641    1.00   0.01  0.06  0.00  0.93  0.00  0.00  0.00  0.05  0.00
  YSB1154YSB6556          1.00   0.09  0.00  0.00  0.91  0.00  0.00  0.00  0.02  0.00
  YSB1171HS02004479       1.00   0.04  0.00  0.00  0.95  0.00  0.00  0.01  0.10  0.00
  YSB1174YSB1171          1.00   0.05  0.02  0.00  0.93  0.00  0.00  0.00  0.00  0.00
  YSB6556YSB1171          1.00   0.04  0.04  0.00  0.91  0.00  0.00  0.00  0.00  0.00
  
  
  *************************
  Conduit Surcharge Summary
  *************************
  
  ----------------------------------------------------------------------------
                                                           Hours        Hours 
                         --------- Hours Full --------   Above Full   Capacity
  Conduit                Both Ends  Upstream  Dnstream   Normal Flow   Limited
  ----------------------------------------------------------------------------
  HS02004478WS02006287        0.46      0.46      0.66      0.01         0.01
  HS02004479HS02004480        0.66      0.66      0.69      0.01         0.01
  HS02004480HS02004478        0.58      0.65      0.58      1.76         0.58
  HS02004770HS02004777        0.55      0.55      0.56      0.12         0.07
  HS02004777HS02004785        0.51      0.51      0.56      0.01         0.01
  HS02004785HS02004788        0.49      0.51      0.49      1.45         0.45
  HS02004788HS02004792        0.49      0.49      0.62      0.01         0.01
  HS02004792HS02004799        0.62      0.62      0.77      0.01         0.01
  HS02004799HS02004480        0.65      0.65      0.77      0.88         0.01
  HS02004802HS02004478        0.60      0.60      0.68      0.10         0.01
  HS02004807HS02004802        0.64      0.64      0.66      0.24         0.25
  HS02004817HS02004807        0.64      0.64      1.25      0.01         0.01
  HS02004817HS02004824        0.50      0.50      1.25      0.01         0.01
  HS02004824HS02004830        0.46      0.46      0.50      0.01         0.01
  HS02004830HS02004837        0.42      0.42      0.46      0.01         0.01
  HS02004837HS02004842        0.42      0.42      0.56      0.01         0.01
  HS02004842HS02004848        0.37      0.37      0.56      0.01         0.01
  HS02004848HS02004852        0.37      0.37      0.39      0.02         0.01
  HS02004852HS02004856        0.39      0.39      0.43      0.01         0.01
  HS02004856HS02004862        0.36      0.36      0.44      0.01         0.01
  HS02004862HS02004870        0.44      0.44      0.46      0.20         0.22
  HS02004870HS02004876        0.46      0.46      0.49      0.01         0.01
  HS02004876HS02004881        0.47      0.49      0.47      1.40         0.47
  HS02004881HS02006253        0.47      0.47      1.12      0.01         0.01
  HS02004901HS02004770        0.55      0.55      0.56      0.01         0.01
  WS02003072WS02003073        0.01      0.01      0.01      2.14         0.01
  WS02004401WS02004402        1.47      1.47      1.50      1.34         1.31
  WS02004402WS02004403        1.50      1.50      1.50      1.47         1.46
  WS02004403WS02004404        1.50      1.50      1.57      0.01         0.02
  WS02004404WS02004405        1.56      1.57      1.56      2.75         1.56
  WS02004405WS02004406        1.54      1.56      1.54      1.72         1.54
  WS02004406WS02004407        0.01      0.01      1.54      0.01         0.01
  WS02004407WS02004409        0.01      0.01      1.05      0.01         0.01
  WS02004409WS02004410        0.97      1.05      0.97      1.38         0.97
  WS02004410WS02004411        0.88      0.97      0.88      1.42         0.88
  WS02004411WS02004412        0.79      0.88      0.79      1.46         0.79
  WS02004412WS02004413        0.79      0.79      1.27      0.01         0.01
  WS02004413WS02003067        0.01      0.01      1.27      0.01         0.01
  WS02006109WS02006110        1.68      1.68      1.90      1.68         0.01
  WS02006110WS02006113        1.25      1.25      1.89      0.27         0.01
  WS02006111WS02006112        1.23      1.23      2.06      0.01         0.01
  WS02006112WS02006115        1.38      1.38      1.74      0.01         0.01
  WS02006113WS02006111        1.24      1.25      1.25      1.30         1.24
  WS02006115WS02006116        1.39      1.39      1.39      1.37         1.37
  WS02006116WS02004401        1.47      1.47      1.47      1.43         1.43
  WS02006228WS02006109        1.87      1.90      1.87      2.22         1.87
  WS02006229WS02006228        1.87      1.88      1.87      2.03         1.87
  WS02006230WS02006229        1.95      1.96      1.95      2.69         0.75
  WS02006231WS02006230        1.53      1.53      1.57      2.22         1.09
  WS02006232WS02006231        1.55      1.55      1.69      0.01         0.14
  WS02006234WS02006232        1.57      1.57      1.69      0.01         0.01
  WS02006235WS02006234        1.54      1.55      1.56      1.94         1.03
  WS02006238WS02006235        1.57      1.57      1.60      0.01         0.34
  WS02006239WS02006238        1.56      1.57      1.58      0.85         0.03
  WS02006240WS02006239        1.48      1.49      1.53      0.84         0.03
  WS02006242WS02006240        1.47      1.47      1.57      0.98         0.88
  WS02006243WS02006242        1.43      1.44      1.49      0.01         0.01
  WS02006245WS02006243        1.41      1.42      1.43      0.07         0.03
  WS02006247WS02006245        1.41      1.42      1.41      1.63         0.22
  WS02006248WS02006247        1.37      1.38      1.42      0.02         0.01
  WS02006249WS02006248        1.35      1.35      1.37      0.33         0.02
  WS02006251WS02006249        1.34      1.38      1.37      1.06         0.86
  WS02006252WS02006251        1.18      2.10      1.35      0.46         0.05
  WS02006253WS02006251        1.34      1.37      1.39      0.87         0.11
  WS02006256WS02006235        2.27      2.31      5.47      0.05         0.01
  WS02006280WS02006229        0.79      0.79      0.92      0.01         0.01
  WS02006284WS02006280        0.69      0.69      0.77      0.01         0.01
  WS02006287WS02006284        0.57      0.57      0.70      0.27         0.28
  YS02001580YS02001583        0.54      0.54      0.56      0.01         0.01
  YS02001583YS02001586        0.54      0.54      0.63      0.01         0.01
  YS02001586YS02001590        0.64      0.64      0.71      0.01         0.01
  YS02001590YS02001593        0.71      0.71      0.73      0.75         0.01
  YS02001593YS02001596        0.72      0.72      0.83      0.01         0.01
  YS02001596YS02001600        0.89      0.89      1.00      0.01         0.01
  YS02001600YS02001601        1.07      1.07      1.38      0.01         0.01
  YS02001601YS02001602        1.25      1.25      1.42      1.04         0.01
  YS02001602YS02001605        1.19      1.19      1.25      2.27         0.01
  YS02001605YS02001607        1.14      1.19      1.14      1.34         1.14
  YS02001607YS02001610        0.64      0.64      0.67      0.01         0.01
  YS02001610YS02001613        0.63      0.63      0.67      0.01         0.01
  YS02001613YS02001616        0.59      0.59      0.63      0.01         0.01
  YS02001616YS02001619        0.57      0.57      0.59      0.01         0.02
  YS02001619YS02001622        0.56      0.57      0.56      0.75         0.55
  YS02001622YS02001625        0.56      0.56      0.77      0.01         0.01
  YS02001625YS02001629        0.47      0.47      0.77      0.01         0.01
  YS02001629YS02163301        0.74      0.74      0.75      0.36         0.35
  YS02001633YS02163601        0.77      0.77      0.81      0.48         0.47
  YS02001641YS02001644        0.58      0.64      0.58      1.47         0.57
  YS02001644YS02001647        0.32      0.32      0.58      0.05         0.01
  YS02001647YS02001649        0.32      0.32      0.35      0.01         0.01
  YS02001649YS02001757        0.33      0.35      0.33      0.42         0.27
  YS02001652YS02001649        0.26      0.26      0.35      0.01         0.01
  YS02001655YS02001652        0.20      0.20      0.25      0.01         0.01
  YS02001658YS02001655        0.13      0.13      0.20      0.01         0.01
  YS02001661YS02001658        0.01      0.01      0.13      0.01         0.01
  YS02001664YS02001661        0.01      0.01      0.04      0.01         0.01
  YS02001745YS02001748        0.01      0.01      0.06      0.01         0.01
  YS02001748YS02001751        0.09      0.09      0.14      0.01         0.01
  YS02001751YS02001754        0.14      0.14      0.19      0.01         0.01
  YS02001754YS02001757        0.21      0.21      0.33      0.01         0.01
  YS02001757CaochengTiaoxuchi        0.01      0.33      0.01      0.45         0.01
  YS02001759YS02001757        0.29      0.29      0.33      0.03         0.04
  YS02001762YS02001759        0.27      0.27      0.29      0.01         0.03
  YS02001765YS02001762        0.26      0.26      0.27      0.01         0.01
  YS02001767YS02001765        0.25      0.25      0.26      0.01         0.05
  YS02001770YS02001767        0.25      0.26      0.25      0.51         0.25
  YS02001774YS02001770        0.25      0.25      0.28      0.01         0.01
  YS02001779YS02001774        0.21      0.21      0.28      0.01         0.01
  YS02001783YS02001784        0.42      0.44      0.42      0.61         0.42
  YS02001784YS02001785        0.32      0.42      0.32      0.86         0.32
  YS02001786YS02001788        0.01      0.32      0.01      0.73         0.01
  YS02001790YS02001791        0.01      0.01      0.01      0.41         0.01
  YS02001793JiankangQianchi        0.01      0.01      4.63      0.01         0.01
  YS02001882YS02001884        0.39      0.39      0.40      0.01         0.01
  YS02001884YS02001887        0.42      0.42      0.43      0.01         0.01
  YS02001887YS02001890        0.45      0.45      0.46      0.08         0.01
  YS02001890YS02001895        0.38      0.38      0.48      0.01         0.01
  YS02001895YS02001898        0.37      0.37      0.38      0.01         0.01
  YS02001898YS02001901        0.38      0.38      0.42      0.01         0.01
  YS02001901YS02001904        0.41      0.41      0.42      0.01         0.01
  YS02001904YS02001907        0.41      0.41      0.71      0.01         0.01
  YS02001907YS02006553        0.86      0.86      0.95      0.01         0.01
  YS02001910YS02001907        0.47      0.47      0.69      0.01         0.01
  YS02001915YS02001910        0.39      0.39      0.47      0.01         0.01
  YS02001918YS02001915        0.31      0.31      0.39      0.01         0.01
  YS02001920YS02001918        0.31      0.31      0.32      0.01         0.01
  YS02001923YS02001920        0.27      0.27      0.32      0.01         0.01
  YS02001926YS02001923        0.05      0.05      0.08      0.01         0.01
  YS02001929YS02001926        0.01      0.01      0.08      0.01         0.01
  YS02006553YS02006556        0.57      0.57      0.71      0.01         0.01
  YS02006556YS02006558        0.64      0.64      0.72      0.01         0.01
  YS02006558YS02006561        0.33      0.55      0.33      0.81         0.33
  YS02006561YS02001783        0.27      0.27      0.44      0.01         0.01
  YS02163301YS02001633        0.75      0.75      0.80      0.01         0.01
  YS02163601YS02164001        0.66      0.66      0.81      0.31         0.01
  YS02164001YS02001641        0.64      0.66      0.64      0.74         0.51
  YSB1154YSB6556              0.73      0.73      0.90      0.01         0.01
  YSB1171HS02004479           0.61      0.61      0.90      0.01         0.01
  YSB1174YSB1171              0.81      0.81      1.17      0.01         0.01
  YSB6556YSB1171              0.73      0.73      1.32      0.01         0.01
  
  
  ***************
  Pumping Summary
  ***************
  
  ---------------------------------------------------------------------------------------------------------
                                                  Min       Avg       Max     Total     Power    % Time Off
                        Percent   Number of      Flow      Flow      Flow    Volume     Usage    Pump Curve
  Pump                 Utilized   Start-Ups       LPS       LPS       LPS  10^6 ltr     Kw-hr    Low   High
  ---------------------------------------------------------------------------------------------------------
  CC-R1                    2.80          10      0.00   2779.65   3415.00     1.933     31.98    0.0  100.0
  CC-R2                    7.37          40      0.00   3210.27   3415.00     6.427    106.43    0.0  100.0
  CC-S1                    5.61          31      0.00    920.35   1000.00     1.376     13.42    0.0    0.0
  CC-S2                    6.13          22      0.00    925.62   1000.00     1.526     14.97    0.0    0.0
  JK-R1                    1.55          24      0.00   2960.16   5000.00     1.300     11.11    0.0    0.0
  JK-R2                    1.22          21      0.00   4614.68   5000.00     1.573     13.33    0.0    0.0
  JK-S                     6.94          30      0.00    481.31   1500.00     0.972     16.46    0.0    0.0
  XR-1                    97.91           2      0.00     95.00     95.00     2.679      9.61    0.0    0.0
  XR-2                    93.94           2      0.00     95.00     95.00     2.570      8.77    0.0    0.0
  XR-3                     0.00           1      0.00     95.00     95.00     0.000      0.00    0.0    0.0
  XR-4                     0.00           1      0.00     95.00     95.00     0.000      0.00    0.0    0.0
  

  Analysis begun on:  Wed Jul 12 21:33:53 2023
  Analysis ended on:  Wed Jul 12 21:34:14 2023
  Total elapsed time: 00:00:21