
  OWA STORM WATER MANAGEMENT MODEL - VERSION v5.1.14 (OWA 2022-07-31)
  --------------------------------------------------------------

  WARNING 04: minimum elevation drop used for Conduit WS02004404WS02004405
  WARNING 03: negative offset ignored for Link YS02001904YS02001907
  
  *********************************************************
  NOTE: The summary statistics displayed in this report are
  based on results found at every computational time step,  
  not just on results from each reporting time step.
  *********************************************************
  
  ****************
  Analysis Options
  ****************
  Flow Units ............... LPS
  Process Models:
    Rainfall/Runoff ........ YES
    RDII ................... NO
    Snowmelt ............... NO
    Groundwater ............ NO
    Flow Routing ........... YES
    Ponding Allowed ........ NO
    Water Quality .......... NO
  Infiltration Method ...... HORTON
  Flow Routing Method ...... DYNWAVE
  Surcharge Method ......... EXTRAN
  Starting Date ............ 08/28/2015 08:00:00
  Ending Date .............. 08/28/2015 16:00:00
  Antecedent Dry Days ...... 8.0
  Report Time Step ......... 00:01:00
  Wet Time Step ............ 00:01:00
  Dry Time Step ............ 00:01:00
  Routing Time Step ........ 30.00 sec
  Variable Time Step ....... YES
  Maximum Trials ........... 8
  Number of Threads ........ 1
  Head Tolerance ........... 0.001500 m
  
  
  **************************        Volume         Depth
  Runoff Quantity Continuity     hectare-m            mm
  **************************     ---------       -------
  Initial LID Storage ......         0.072         1.184
  Total Precipitation ......         2.950        48.704
  Evaporation Loss .........         0.000         0.000
  Infiltration Loss ........         0.198         3.263
  Surface Runoff ...........         2.208        36.451
  Final Storage ............         0.617        10.187
  Continuity Error (%) .....        -0.025
  
  
  **************************        Volume        Volume
  Flow Routing Continuity        hectare-m      10^6 ltr
  **************************     ---------     ---------
  Dry Weather Inflow .......         0.630         6.296
  Wet Weather Inflow .......         2.208        22.081
  Groundwater Inflow .......         0.000         0.000
  RDII Inflow ..............         0.000         0.000
  External Inflow ..........         0.105         1.045
  External Outflow .........         2.209        22.086
  Flooding Loss ............         0.726         7.263
  Evaporation Loss .........         0.000         0.000
  Exfiltration Loss ........         0.000         0.000
  Initial Stored Volume ....         0.303         3.031
  Final Stored Volume ......         0.321         3.209
  Continuity Error (%) .....        -0.323
  
  
  *************************
  Highest Continuity Errors
  *************************
  Node WS02006256 (-10.72%)
  Node YS02001884 (5.37%)
  Node YS02001583 (-4.91%)
  Node YS02001774 (2.27%)
  Node HS02004842 (1.95%)
  
  
  ***************************
  Time-Step Critical Elements
  ***************************
  Link WS02006280WS02006229 (51.35%)
  Link WS02006252WS02006251 (17.79%)
  Link WS02006238WS02006235 (9.14%)
  Link WS02004404WS02004405 (6.24%)
  Link YS02001791YS02001793 (4.86%)
  
  
  ********************************
  Highest Flow Instability Indexes
  ********************************
  Link WS02006113WS02006111 (21)
  Link WS02006256WS02006235 (20)
  Link WS02006238WS02006235 (19)
  Link WS02004404WS02004405 (16)
  Link WS02006111WS02006112 (15)
  
  
  *************************
  Routing Time Step Summary
  *************************
  Minimum Time Step           :     0.01 sec
  Average Time Step           :     2.50 sec
  Maximum Time Step           :     6.46 sec
  Percent in Steady State     :    -0.00
  Average Iterations per Step :     3.18
  Percent Not Converging      :    10.69
  
  
  ***************************
  Subcatchment Runoff Summary
  ***************************
  
  ------------------------------------------------------------------------------------------------------------------------------
                            Total      Total      Total      Total     Imperv       Perv      Total       Total     Peak  Runoff
                           Precip      Runon       Evap      Infil     Runoff     Runoff     Runoff      Runoff   Runoff   Coeff
  Subcatchment                 mm         mm         mm         mm         mm         mm         mm    10^6 ltr      LPS
  ------------------------------------------------------------------------------------------------------------------------------
  sub0                      48.70       0.00       0.00       0.97      44.04       2.44      46.48        0.04    27.59   0.954
  sub1                      48.70       0.00       0.00       1.46      37.74       3.34      41.07        0.27   170.76   0.843
  sub10                     48.70       0.00       0.00       0.93      35.37       2.23      37.60        0.41   267.12   0.772
  sub11                     48.70       0.00       0.00       0.85      32.87       2.09      34.96        0.41   278.04   0.718
  sub12                     48.70       0.00       0.00       1.49      33.42       3.64      37.07        0.32   236.32   0.761
  sub14                     48.70       0.00       0.00       0.93      31.13       2.24      33.37        0.32   214.28   0.685
  sub15                     48.70       0.00       0.00       4.22      27.99       8.12      36.11        0.62   379.54   0.741
  sub16                     48.70       0.00       0.00       4.48      27.30       9.36      36.66        0.38   256.75   0.753
  sub17                     48.70       0.00       0.00       4.80      30.13       9.79      39.92        0.34   222.37   0.820
  sub2                      48.70       0.00       0.00       6.66      27.58      10.03      37.61        0.35   178.56   0.772
  sub22                     48.70       0.00       0.00       7.49      26.12      12.79      38.92        2.46  1397.90   0.799
  sub23                     48.70       0.00       0.00       5.63      26.90      10.63      37.53        1.79  1097.34   0.771
  sub3                      48.70       0.00       0.00       7.12      27.30       9.42      36.73        0.83   384.68   0.754
  sub4                      48.70       0.00       0.00       1.60      37.14       3.14      40.28        0.84   417.69   0.827
  sub5                      48.70       0.00       0.00       0.83      36.51       2.00      38.51        0.44   275.90   0.791
  sub60                     48.70       0.00       0.00       1.33      32.15       3.18      35.33        0.46   321.14   0.725
  sub61                     48.70       0.00       0.00       2.04      32.12       4.73      36.85        0.68   467.73   0.757
  sub62                     48.70       0.00       0.00       0.90      34.24       2.16      36.40        1.00   639.04   0.747
  sub63                     48.70       0.00       0.00       3.75      27.51       7.81      35.32        0.80   525.06   0.725
  sub64                     48.70       0.00       0.00       1.80      31.32       3.89      35.21        0.85   522.20   0.723
  sub65                     48.70       0.00       0.00       1.65      33.80       3.55      37.35        1.03   610.27   0.767
  sub66                     48.70       0.00       0.00       4.39      26.59       6.81      33.40        1.56   783.46   0.686
  sub67                     48.70       0.00       0.00       0.90      35.11       2.24      37.35        0.69   499.58   0.767
  sub68                     48.70       0.00       0.00       1.57      31.00       3.63      34.63        0.95   636.22   0.711
  sub69                     48.70       0.00       0.00       1.42      32.73       4.37      37.10        1.37   790.48   0.762
  sub7                      48.70       0.00       0.00       0.98      33.37       2.41      35.78        0.12    84.01   0.735
  sub70                     48.70       0.00       0.00       4.80      26.21       8.76      34.96        1.01   453.48   0.718
  sub71                     48.70       0.00       0.00       0.83      31.10       1.95      33.05        0.86   529.00   0.679
  sub72                     48.70       0.00       0.00       0.80      33.59       1.81      35.40        0.49   272.27   0.727
  sub8                      48.70       0.00       0.00       0.96      32.43       2.34      34.76        0.22   150.68   0.714
  sub9                      48.70       0.00       0.00       0.93      31.43       2.27      33.70        0.16   109.76   0.692
  

  ***********************
  LID Performance Summary
  ***********************

  --------------------------------------------------------------------------------------------------------------------
                                         Total      Evap     Infil   Surface    Drain    Initial     Final  Continuity
                                        Inflow      Loss      Loss   Outflow   Outflow   Storage   Storage       Error
  Subcatchment      LID Control             mm        mm        mm        mm        mm        mm        mm           %
  --------------------------------------------------------------------------------------------------------------------
  sub1              GreenRoof            48.70      0.00      0.00      0.00      0.00      7.05     55.78       -0.05
  sub10             GreenRoof            48.70      0.00      0.00      0.00      0.00      7.05     55.78       -0.05
  sub11             GreenRoof            48.70      0.00      0.00      0.00      0.00      7.05     55.78       -0.05
  sub12             GreenRoof            48.70      0.00      0.00      0.00      0.00      7.05     55.78       -0.05
  sub14             GreenRoof            48.70      0.00      0.00      0.00      0.00      7.05     55.78       -0.05
  sub15             GreenRoof            48.70      0.00      0.00      0.00      0.00      7.05     55.78       -0.05
  sub16             GreenRoof            48.70      0.00      0.00      0.00      0.00      7.05     55.78       -0.05
  sub17             GreenRoof            48.70      0.00      0.00      0.00      0.00      7.05     55.78       -0.05
  sub2              GreenRoof            48.70      0.00      0.00      0.00      0.00      7.05     55.78       -0.05
  sub22             GreenRoof            48.70      0.00      0.00      0.00      0.00      7.05     55.78       -0.05
  sub23             GreenRoof            48.70      0.00      0.00      0.00      0.00      7.05     55.78       -0.05
  sub3              GreenRoof            48.70      0.00      0.00      0.00      0.00      7.05     55.78       -0.05
  sub4              GreenRoof            48.70      0.00      0.00      0.00      0.00      7.05     55.78       -0.05
  sub5              GreenRoof            48.70      0.00      0.00      0.00      0.00      7.05     55.78       -0.05
  sub60             GreenRoof            48.70      0.00      0.00      0.00      0.00      7.05     55.78       -0.05
  sub61             GreenRoof            48.70      0.00      0.00      0.00      0.00      7.05     55.78       -0.05
  sub62             GreenRoof            48.70      0.00      0.00      0.00      0.00      7.05     55.78       -0.05
  sub63             GreenRoof            48.70      0.00      0.00      0.00      0.00      7.05     55.78       -0.05
  sub64             GreenRoof            48.70      0.00      0.00      0.00      0.00      7.05     55.78       -0.05
  sub65             GreenRoof            48.70      0.00      0.00      0.00      0.00      7.05     55.78       -0.05
  sub66             GreenRoof            48.70      0.00      0.00      0.00      0.00      7.05     55.78       -0.05
  sub67             GreenRoof            48.70      0.00      0.00      0.00      0.00      7.05     55.78       -0.05
  sub68             GreenRoof            48.70      0.00      0.00      0.00      0.00      7.05     55.78       -0.05
  sub69             GreenRoof            48.70      0.00      0.00      0.00      0.00      7.05     55.78       -0.05
  sub7              GreenRoof            48.70      0.00      0.00      0.00      0.00      7.05     55.78       -0.05
  sub70             GreenRoof            48.70      0.00      0.00      0.00      0.00      7.05     55.78       -0.05
  sub71             GreenRoof            48.70      0.00      0.00      0.00      0.00      7.05     55.78       -0.05
  sub72             GreenRoof            48.70      0.00      0.00      0.00      0.00      7.05     55.78       -0.05
  sub8              GreenRoof            48.70      0.00      0.00      0.00      0.00      7.05     55.78       -0.05
  sub9              GreenRoof            48.70      0.00      0.00      0.00      0.00      7.05     55.78       -0.05
  
  ******************
  Node Depth Summary
  ******************
  
  ---------------------------------------------------------------------------------
                                 Average  Maximum  Maximum  Time of Max    Reported
                                   Depth    Depth      HGL   Occurrence   Max Depth
  Node                 Type       Meters   Meters   Meters  days hr:min      Meters
  ---------------------------------------------------------------------------------
  HS02004478           JUNCTION     0.20     1.65    10.87     0  02:11        1.52
  HS02004479           JUNCTION     0.28     1.73    10.93     0  02:11        1.66
  HS02004480           JUNCTION     0.25     1.72    10.96     0  02:11        1.62
  HS02004770           JUNCTION     0.25     1.42    11.25     0  02:08        1.42
  HS02004777           JUNCTION     0.28     1.48    11.28     0  02:08        1.48
  HS02004785           JUNCTION     0.17     1.49    11.39     0  02:08        1.33
  HS02004788           JUNCTION     0.14     1.42    11.32     0  02:08        1.32
  HS02004792           JUNCTION     0.19     1.60    11.12     0  02:08        1.60
  HS02004799           JUNCTION     0.30     1.76    10.97     0  02:11        1.76
  HS02004802           JUNCTION     0.30     1.84    10.97     0  02:11        1.67
  HS02004807           JUNCTION     0.27     1.92    11.09     0  02:11        1.75
  HS02004817           JUNCTION     0.57     2.40    11.25     0  02:11        2.18
  HS02004824           JUNCTION     0.14     1.98    11.38     0  02:11        1.73
  HS02004830           JUNCTION     0.14     2.00    11.47     0  02:11        1.76
  HS02004837           JUNCTION     0.11     1.93    11.51     0  02:11        1.72
  HS02004842           JUNCTION     0.40     2.22    11.49     0  02:11        2.06
  HS02004848           JUNCTION     0.09     2.00    11.60     0  02:11        1.74
  HS02004852           JUNCTION     0.10     2.05    11.57     0  02:11        1.76
  HS02004856           JUNCTION     0.16     2.07    11.50     0  02:11        1.78
  HS02004862           JUNCTION     0.11     2.00    11.38     0  02:11        1.72
  HS02004870           JUNCTION     0.10     1.95    11.23     0  02:11        1.68
  HS02004876           JUNCTION     0.15     1.99    11.02     0  02:11        1.76
  HS02004881           JUNCTION     0.10     1.94    10.97     0  02:11        1.54
  HS02004901           JUNCTION     0.26     1.42    11.24     0  02:08        1.42
  WS02001211           JUNCTION     0.63     0.80     5.64     0  02:17        0.80
  WS02001212           JUNCTION     0.37     0.57     5.63     0  02:17        0.57
  WS02001213           JUNCTION     0.59     0.86     5.62     0  02:17        0.86
  WS02003059           JUNCTION     0.65     0.93     5.62     0  02:17        0.93
  WS02003060           JUNCTION     0.38     0.68     5.61     0  02:16        0.68
  WS02003066           JUNCTION     0.22     0.45     6.00     0  02:14        0.45
  WS02003067           JUNCTION     0.54     0.88     6.20     0  02:13        0.88
  WS02003069           JUNCTION     0.42     0.77     5.35     0  02:17        0.77
  WS02003072           JUNCTION     0.48     0.80     5.17     0  02:17        0.80
  WS02003073           JUNCTION     0.29     0.51     4.57     0  02:17        0.51
  WS02004138           JUNCTION     0.13     0.14     7.39     0  00:29        0.14
  WS02004139           JUNCTION     0.56     0.74     5.65     0  02:16        0.74
  WS02004401           JUNCTION     0.74     1.80     7.80     0  02:14        1.80
  WS02004402           JUNCTION     0.76     1.74     7.70     0  02:13        1.73
  WS02004403           JUNCTION     0.76     1.67     7.60     0  02:14        1.66
  WS02004404           JUNCTION     0.83     1.68     7.53     0  02:13        1.67
  WS02004405           JUNCTION     0.82     1.64     7.49     0  02:13        1.63
  WS02004406           JUNCTION     0.81     1.53     7.36     0  02:13        1.52
  WS02004407           JUNCTION     0.25     0.88     7.20     0  02:13        0.88
  WS02004409           JUNCTION     0.51     1.36     7.13     0  02:14        1.35
  WS02004410           JUNCTION     0.52     1.27     6.99     0  02:13        1.26
  WS02004411           JUNCTION     0.53     1.18     6.86     0  02:13        1.18
  WS02004412           JUNCTION     0.53     1.09     6.73     0  02:14        1.09
  WS02004413           JUNCTION     0.67     1.14     6.61     0  02:14        1.14
  WS02006109           JUNCTION     0.93     2.64     9.26     0  02:08        2.64
  WS02006110           JUNCTION     0.87     2.37     8.95     0  02:13        2.36
  WS02006111           JUNCTION     0.39     1.67     8.38     0  02:14        1.66
  WS02006112           JUNCTION     0.94     2.29     8.17     0  02:13        2.29
  WS02006113           JUNCTION     0.46     1.81     8.71     0  01:59        1.78
  WS02006115           JUNCTION     0.66     1.88     8.02     0  02:14        1.88
  WS02006116           JUNCTION     0.73     1.88     7.92     0  02:13        1.87
  WS02006228           JUNCTION     0.97     3.03     9.68     0  02:11        3.00
  WS02006229           JUNCTION     0.98     3.25     9.94     0  02:11        3.19
  WS02006230           JUNCTION     0.91     2.65     9.39     0  02:05        2.65
  WS02006231           JUNCTION     0.65     2.19     9.31     0  02:33        2.19
  WS02006232           JUNCTION     0.74     2.18     9.22     0  02:05        2.18
  WS02006234           JUNCTION     0.62     1.96     9.12     0  02:05        1.96
  WS02006235           JUNCTION     0.64     1.92     9.08     0  02:18        1.91
  WS02006238           JUNCTION     0.66     1.92     9.06     0  02:05        1.92
  WS02006239           JUNCTION     0.60     1.78     8.98     0  02:31        1.78
  WS02006240           JUNCTION     0.55     1.63     8.92     0  02:06        1.62
  WS02006242           JUNCTION     0.59     1.55     8.82     0  02:03        1.55
  WS02006243           JUNCTION     0.48     1.47     8.89     0  03:15        1.47
  WS02006245           JUNCTION     0.47     1.37     8.85     0  03:15        1.37
  WS02006247           JUNCTION     0.47     1.30     8.80     0  03:15        1.30
  WS02006248           JUNCTION     0.42     1.10     8.69     0  02:00        1.10
  WS02006249           JUNCTION     0.44     1.09     8.69     0  01:59        1.09
  WS02006251           JUNCTION     0.52     2.21     9.88     0  02:11        2.09
  WS02006252           JUNCTION     0.33     1.50     9.74     0  00:00        1.50
  WS02006253           JUNCTION     0.58     3.31    10.96     0  02:11        2.83
  WS02006256           JUNCTION     0.93     2.35     9.28     0  00:00        2.35
  WS02006280           JUNCTION     0.27     1.80    10.07     0  02:11        1.71
  WS02006284           JUNCTION     0.53     2.03    10.43     0  02:11        1.89
  WS02006287           JUNCTION     0.27     1.82    10.77     0  02:11        1.66
  WSF200               JUNCTION     0.22     0.51     5.75     0  02:14        0.51
  YS02001580           JUNCTION     0.06     1.05     9.59     0  02:08        0.80
  YS02001583           JUNCTION     0.09     1.14     9.64     0  02:08        0.83
  YS02001586           JUNCTION     0.16     1.13     9.30     0  02:08        1.13
  YS02001590           JUNCTION     0.25     1.38     9.24     0  02:08        1.38
  YS02001593           JUNCTION     0.18     1.31     9.17     0  02:08        1.30
  YS02001596           JUNCTION     0.24     1.67     9.09     0  02:08        1.67
  YS02001600           JUNCTION     0.31     1.87     9.00     0  02:09        1.87
  YS02001601           JUNCTION     0.50     2.06     8.90     0  02:08        2.06
  YS02001602           JUNCTION     0.42     1.87     8.77     0  02:08        1.87
  YS02001605           JUNCTION     0.39     1.78     8.68     0  02:23        1.77
  YS02001607           JUNCTION     0.38     1.65     8.49     0  02:14        1.64
  YS02001610           JUNCTION     0.43     1.68     8.48     0  02:08        1.68
  YS02001613           JUNCTION     0.38     1.66     8.50     0  02:11        1.64
  YS02001616           JUNCTION     0.32     1.59     8.50     0  02:11        1.59
  YS02001619           JUNCTION     0.29     1.59     8.52     0  02:11        1.56
  YS02001622           JUNCTION     0.28     1.56     8.47     0  02:11        1.55
  YS02001625           JUNCTION     0.54     1.78     8.38     0  02:11        1.78
  YS02001629           JUNCTION     0.40     1.85     8.40     0  02:12        1.85
  YS02001633           JUNCTION     0.47     2.00     8.46     0  02:14        1.99
  YS02001641           JUNCTION     0.46     1.95     8.39     0  02:14        1.94
  YS02001644           JUNCTION     0.45     1.92     8.35     0  02:14        1.92
  YS02001647           JUNCTION     0.23     1.70     8.31     0  02:14        1.70
  YS02001649           JUNCTION     0.27     1.83     8.22     0  02:14        1.83
  YS02001652           JUNCTION     0.16     1.71     8.30     0  02:14        1.71
  YS02001655           JUNCTION     0.11     1.62     8.47     0  02:13        1.43
  YS02001658           JUNCTION     0.08     1.52     8.67     0  02:13        1.03
  YS02001661           JUNCTION     0.12     0.76     8.17     0  02:14        0.74
  YS02001664           JUNCTION     0.05     0.28     8.20     0  02:13        0.27
  YS02001745           JUNCTION     0.04     0.50     8.02     0  02:14        0.47
  YS02001748           JUNCTION     0.07     0.96     8.03     0  02:14        0.81
  YS02001751           JUNCTION     0.09     1.46     8.34     0  02:13        1.01
  YS02001754           JUNCTION     0.13     1.54     8.15     0  02:13        1.32
  YS02001757           JUNCTION     0.28     1.76     8.02     0  02:14        1.72
  YS02001759           JUNCTION     0.22     1.72     8.09     0  02:14        1.65
  YS02001762           JUNCTION     0.22     1.72     8.12     0  02:14        1.61
  YS02001765           JUNCTION     0.20     1.69     8.14     0  02:14        1.56
  YS02001767           JUNCTION     0.20     1.70     8.18     0  02:14        1.55
  YS02001770           JUNCTION     0.21     1.83     8.32     0  02:12        1.58
  YS02001774           JUNCTION     0.27     1.99     8.41     0  02:12        1.66
  YS02001779           JUNCTION     0.11     1.68     8.37     0  02:12        1.39
  YS02001783           JUNCTION     0.21     1.45     7.59     0  02:12        1.21
  YS02001784           JUNCTION     0.23     1.24     7.31     0  02:12        1.10
  YS02001786           JUNCTION     0.19     0.96     6.99     0  02:12        0.86
  YS02001788           JUNCTION     0.14     0.62     6.60     0  02:12        0.62
  YS02001790           JUNCTION     0.17     0.72     6.37     0  02:16        0.71
  YS02001791           JUNCTION     0.11     0.43     5.90     0  02:14        0.42
  YS02001793           JUNCTION     0.05     0.21     5.04     0  02:23        0.21
  YS02001882           JUNCTION     0.26     1.68     8.40     0  02:12        1.62
  YS02001884           JUNCTION     0.35     1.77     8.38     0  02:12        1.71
  YS02001887           JUNCTION     0.42     1.82     8.36     0  02:12        1.80
  YS02001890           JUNCTION     0.45     1.81     8.32     0  02:12        1.81
  YS02001895           JUNCTION     0.23     1.57     8.32     0  02:12        1.56
  YS02001898           JUNCTION     0.24     1.59     8.32     0  02:12        1.55
  YS02001901           JUNCTION     0.35     1.70     8.31     0  02:12        1.67
  YS02001904           JUNCTION     0.33     1.66     8.29     0  02:12        1.63
  YS02001907           JUNCTION     0.64     1.96     8.25     0  02:12        1.96
  YS02001910           JUNCTION     0.44     1.96     8.47     0  02:12        1.95
  YS02001915           JUNCTION     0.26     1.90     8.62     0  02:12        1.89
  YS02001918           JUNCTION     0.12     1.81     8.88     0  02:12        1.81
  YS02001920           JUNCTION     0.20     2.14     9.15     0  02:12        1.78
  YS02001923           JUNCTION     0.09     2.03     9.29     0  02:12        1.47
  YS02001926           JUNCTION     0.13     1.90     9.35     0  02:12        1.28
  YS02001929           JUNCTION     0.07     1.78     9.47     0  02:12        1.09
  YS02006553           JUNCTION     0.65     2.00     8.28     0  02:12        1.96
  YS02006556           JUNCTION     0.62     2.00     8.32     0  02:12        1.92
  YS02006558           JUNCTION     0.66     2.07     8.34     0  02:12        1.96
  YS02006561           JUNCTION     0.13     1.16     7.82     0  02:12        0.87
  YS02163301           JUNCTION     0.42     1.91     8.43     0  02:14        1.90
  YS02163601           JUNCTION     0.51     2.03     8.43     0  02:14        2.01
  YS02164001           JUNCTION     0.44     1.95     8.41     0  02:14        1.93
  YSB1154              JUNCTION     0.41     1.87    10.92     0  02:11        1.86
  YSB1171              JUNCTION     0.56     1.95    10.85     0  02:11        1.95
  YSB1174              JUNCTION     0.37     1.78    10.89     0  02:11        1.77
  YSB6556              JUNCTION     0.31     1.72    10.89     0  02:11        1.71
  CC-1                 OUTFALL      0.00     0.00     0.00     0  00:00        0.00
  CC-2                 OUTFALL      0.00     0.00     0.00     0  00:00        0.00
  JK-1                 OUTFALL      0.00     0.00     0.00     0  00:00        0.00
  JK-2                 OUTFALL      0.00     0.00     0.00     0  00:00        0.00
  WSC                  OUTFALL      0.29     0.51     1.18     0  02:18        0.51
  CC-storage           STORAGE      0.71     1.40     6.90     0  02:32        1.40
  JK-storage           STORAGE      1.43     3.41     4.21     0  02:26        3.41
  XR-storage           STORAGE      7.85     9.26     7.26     0  08:00        9.26
  
  
  *******************
  Node Inflow Summary
  *******************
  
  -------------------------------------------------------------------------------------------------
                                  Maximum  Maximum                  Lateral       Total        Flow
                                  Lateral    Total  Time of Max      Inflow      Inflow     Balance
                                   Inflow   Inflow   Occurrence      Volume      Volume       Error
  Node                 Type           LPS      LPS  days hr:min    10^6 ltr    10^6 ltr     Percent
  -------------------------------------------------------------------------------------------------
  HS02004478           JUNCTION      0.00  2247.68     0  02:13           0        6.76      -0.014
  HS02004479           JUNCTION      0.00   456.86     0  02:11           0       0.685       0.154
  HS02004480           JUNCTION      0.00  2105.79     0  02:09           0        5.28       0.045
  HS02004770           JUNCTION   1097.34  1097.34     0  02:14        1.79           2       0.141
  HS02004777           JUNCTION      0.03   763.07     0  02:08    0.000864        1.58       0.316
  HS02004785           JUNCTION      0.15   788.05     0  02:08     0.00432        1.58       0.007
  HS02004788           JUNCTION    381.21   815.21     0  02:08       0.669        2.25       0.003
  HS02004792           JUNCTION   1398.18  2118.98     0  02:14        2.47        4.71      -0.001
  HS02004799           JUNCTION    214.28  1769.59     0  02:09       0.318        4.61       0.059
  HS02004802           JUNCTION      0.00   732.90     0  02:14           0        1.51       0.266
  HS02004807           JUNCTION    278.04   732.75     0  02:14       0.406        1.56       0.266
  HS02004817           JUNCTION      0.60   462.94     0  02:14      0.0173        1.21       1.370
  HS02004824           JUNCTION    417.74   637.18     0  02:09       0.842        1.38       0.022
  HS02004830           JUNCTION      0.15   634.32     0  02:09     0.00432       0.715       0.209
  HS02004837           JUNCTION    273.47   821.85     0  02:09       0.598       0.984       0.075
  HS02004842           JUNCTION      0.00   832.48     0  02:09           0       0.661       1.993
  HS02004848           JUNCTION    384.68  1088.87     0  02:11       0.827        1.33       0.013
  HS02004852           JUNCTION      0.00  1078.92     0  02:11           0        1.18      -0.020
  HS02004856           JUNCTION    109.76  1182.02     0  02:11       0.162        1.34       0.038
  HS02004862           JUNCTION    178.76  1265.82     0  02:11       0.356         1.7      -0.023
  HS02004870           JUNCTION    150.68  1342.71     0  02:11       0.222        1.92       0.002
  HS02004876           JUNCTION    170.76  1391.38     0  02:11       0.273        2.19       0.025
  HS02004881           JUNCTION     84.01  1442.13     0  02:12       0.121        2.31       0.030
  HS02004901           JUNCTION    256.75   485.47     0  02:14       0.384       0.556       0.316
  WS02001211           JUNCTION      7.35   204.57     0  02:45       0.212        5.44       0.612
  WS02001212           JUNCTION      0.00   211.45     0  02:44           0        5.41       0.290
  WS02001213           JUNCTION      0.00   216.72     0  02:44           0        5.39       0.332
  WS02003059           JUNCTION      0.00   221.92     0  02:43           0        5.38       0.596
  WS02003060           JUNCTION     16.53  1477.64     0  02:16       0.476        12.8       0.116
  WS02003066           JUNCTION      0.00  1276.19     0  02:14           0        6.97       0.022
  WS02003067           JUNCTION      0.00  1275.69     0  02:14           0        6.98       0.065
  WS02003069           JUNCTION      0.32  1477.53     0  02:16     0.00922        12.8       0.122
  WS02003072           JUNCTION      0.00  1477.35     0  02:17           0        12.8       0.165
  WS02003073           JUNCTION      1.82  1479.29     0  02:17      0.0524        12.8       0.172
  WS02004138           JUNCTION      0.00   380.00     0  00:00           0        5.25       0.054
  WS02004139           JUNCTION      0.32   191.10     0  00:29     0.00924        5.26       0.508
  WS02004401           JUNCTION      0.00  1275.85     0  02:12           0        7.09       0.153
  WS02004402           JUNCTION      0.00  1275.96     0  02:13           0        7.07       0.153
  WS02004403           JUNCTION      0.00  1275.80     0  02:13           0        7.06       0.150
  WS02004404           JUNCTION      0.16  1276.81     0  02:13     0.00467        7.06       0.123
  WS02004405           JUNCTION      0.04  1276.28     0  02:13      0.0011        7.05       0.183
  WS02004406           JUNCTION      0.00  1276.38     0  02:13           0        7.04       0.308
  WS02004407           JUNCTION      0.00  1276.06     0  02:13           0        7.02       0.024
  WS02004409           JUNCTION      0.00  1275.41     0  02:14           0        7.01       0.047
  WS02004410           JUNCTION      0.00  1275.86     0  02:14           0        7.01       0.073
  WS02004411           JUNCTION      0.00  1275.54     0  02:14           0        7.01       0.092
  WS02004412           JUNCTION      0.00  1275.52     0  02:14           0           7       0.118
  WS02004413           JUNCTION      0.00  1275.70     0  02:14           0        6.99       0.202
  WS02006109           JUNCTION      1.23  1260.92     0  02:13      0.0354        6.91       0.154
  WS02006110           JUNCTION      0.00  1118.70     0  02:24           0        6.79       0.121
  WS02006111           JUNCTION      0.00  1119.00     0  02:24           0        6.78       0.014
  WS02006112           JUNCTION    222.37  1275.51     0  02:13       0.343        7.12       0.270
  WS02006113           JUNCTION      0.00  1118.79     0  02:24           0        6.78       0.027
  WS02006115           JUNCTION      0.00  1275.45     0  02:13           0         7.1       0.096
  WS02006116           JUNCTION      0.00  1276.17     0  02:13           0        7.09       0.078
  WS02006228           JUNCTION      0.00  1260.13     0  02:13           0        6.88       0.076
  WS02006229           JUNCTION      0.00  2248.69     0  02:13           0        8.47       0.101
  WS02006230           JUNCTION     10.28   998.05     0  02:13       0.296        3.36       0.287
  WS02006231           JUNCTION      0.00   475.57     0  03:10           0        2.49      -0.227
  WS02006232           JUNCTION      0.00   473.90     0  03:10           0        2.48       0.307
  WS02006234           JUNCTION      0.00   469.81     0  03:10           0        2.47      -0.439
  WS02006235           JUNCTION      0.00   501.77     0  03:35           0        2.47       0.546
  WS02006238           JUNCTION      0.00   401.30     0  02:27           0        2.28      -0.085
  WS02006239           JUNCTION      0.00   400.70     0  02:21           0        2.22      -0.102
  WS02006240           JUNCTION      0.00   400.38     0  02:26           0        2.18       0.021
  WS02006242           JUNCTION      0.00   400.55     0  02:21           0        2.17      -0.026
  WS02006243           JUNCTION      0.00   399.70     0  03:20           0        1.92      -0.051
  WS02006245           JUNCTION      0.00   399.79     0  03:20           0        1.92       0.446
  WS02006247           JUNCTION      0.00   399.83     0  03:20           0        1.92      -0.005
  WS02006248           JUNCTION      0.00   400.80     0  03:20           0        2.08      -0.001
  WS02006249           JUNCTION      0.00  1329.12     0  02:12           0        4.24       0.142
  WS02006251           JUNCTION      0.08  1472.75     0  02:12     0.00222        4.27       0.023
  WS02006252           JUNCTION      0.00   400.00     0  00:00           0        2.01      -0.785
  WS02006253           JUNCTION     27.59  1470.75     0  02:12      0.0377        2.38       0.000
  WS02006256           JUNCTION      0.00   300.00     0  00:00           0       0.271      -9.684
  WS02006280           JUNCTION      0.00  2247.59     0  02:13           0        6.74       0.014
  WS02006284           JUNCTION      0.10  2247.12     0  02:13     0.00275        6.74       0.001
  WS02006287           JUNCTION      0.00  2247.26     0  02:13           0        6.74       0.014
  WSF200               JUNCTION      0.00  1276.31     0  02:14           0        6.97       0.013
  YS02001580           JUNCTION      0.00   116.00     0  02:08           0     0.00392      -5.747
  YS02001583           JUNCTION      0.00   164.47     0  02:08           0       0.015      -4.681
  YS02001586           JUNCTION    453.48   453.48     0  02:15        1.01        1.02       0.128
  YS02001590           JUNCTION      0.00   317.98     0  02:19           0       0.942      -0.033
  YS02001593           JUNCTION      0.00   317.99     0  02:13           0       0.942       0.016
  YS02001596           JUNCTION      0.00   317.94     0  02:19           0       0.942       0.005
  YS02001600           JUNCTION      0.00   318.02     0  02:13           0       0.942       0.006
  YS02001601           JUNCTION    790.48  1107.94     0  02:14        1.37        2.31       0.031
  YS02001602           JUNCTION      0.00   515.96     0  02:08           0        1.76       0.016
  YS02001605           JUNCTION      0.00   515.34     0  02:08           0         1.7       0.010
  YS02001607           JUNCTION      0.00   514.98     0  02:08           0         1.7       0.112
  YS02001610           JUNCTION      0.00   515.64     0  02:08           0         1.7       0.126
  YS02001613           JUNCTION      0.00   516.55     0  02:08           0        1.55       0.099
  YS02001616           JUNCTION      0.00   518.63     0  02:08           0        1.55       0.027
  YS02001619           JUNCTION    783.46   939.08     0  02:11        1.56        3.11      -0.003
  YS02001622           JUNCTION      0.00   937.20     0  02:11           0        3.11       0.000
  YS02001625           JUNCTION      0.00   936.25     0  02:11           0        3.11       0.288
  YS02001629           JUNCTION      0.00   935.66     0  02:10           0        2.89       0.021
  YS02001633           JUNCTION    610.47  1420.98     0  02:11        1.03        3.92       0.088
  YS02001641           JUNCTION      0.00  1413.81     0  02:11           0        3.92       0.073
  YS02001644           JUNCTION    522.23  1837.23     0  02:11       0.847        4.76       0.070
  YS02001647           JUNCTION      0.00  1839.41     0  02:11           0        4.75       0.005
  YS02001649           JUNCTION      0.00  2115.37     0  02:11           0        5.56       0.006
  YS02001652           JUNCTION      0.00   601.62     0  02:16           0       0.807      -0.110
  YS02001655           JUNCTION      0.15   603.07     0  02:16     0.00443       0.806      -0.051
  YS02001658           JUNCTION      0.00   696.46     0  02:13           0       0.802      -0.045
  YS02001661           JUNCTION      0.00   532.48     0  02:13           0       0.802       0.038
  YS02001664           JUNCTION    525.06   525.06     0  02:13       0.802       0.802      -0.006
  YS02001745           JUNCTION    321.14   321.14     0  02:13       0.464       0.464       0.305
  YS02001748           JUNCTION      0.04   499.26     0  02:15      0.0013       0.465      -0.394
  YS02001751           JUNCTION      0.01   489.05     0  02:16    0.000317       0.471       0.119
  YS02001754           JUNCTION      0.26   379.92     0  02:16     0.00749       0.481      -0.276
  YS02001757           JUNCTION      0.00  3247.99     0  02:14           0        7.73       0.074
  YS02001759           JUNCTION    467.77  1162.70     0  02:12       0.677        1.69      -0.008
  YS02001762           JUNCTION      0.00   693.69     0  02:12           0        1.02       0.015
  YS02001765           JUNCTION      0.00   683.95     0  02:12           0        1.02       0.010
  YS02001767           JUNCTION      0.54   675.99     0  02:12      0.0154        1.02       0.010
  YS02001770           JUNCTION    639.19   666.74     0  02:12           1        1.04      -0.000
  YS02001774           JUNCTION      0.00   300.40     0  02:12           0      0.0599       2.320
  YS02001779           JUNCTION      0.01   303.15     0  02:12    0.000144       0.018      -4.765
  YS02001783           JUNCTION      0.00  1152.41     0  02:13           0        2.82       0.005
  YS02001784           JUNCTION      1.06  1153.80     0  02:13      0.0305        2.86       0.018
  YS02001786           JUNCTION      0.06  1153.58     0  02:13     0.00162        2.86       0.021
  YS02001788           JUNCTION      0.07  1154.21     0  02:13     0.00204        2.86       0.010
  YS02001790           JUNCTION      0.15  1166.79     0  02:12     0.00446        2.86       0.019
  YS02001791           JUNCTION      0.00  1274.20     0  02:16           0        2.86      -0.013
  YS02001793           JUNCTION      0.00  1220.71     0  02:18           0        2.86       0.007
  YS02001882           JUNCTION      0.00    53.05     0  02:10           0      0.0121       5.521
  YS02001884           JUNCTION      0.00    76.73     0  02:10           0      0.0477       5.676
  YS02001887           JUNCTION    500.03   500.06     0  02:13       0.708       0.741       0.604
  YS02001890           JUNCTION      0.00   500.62     0  02:13           0         0.7       0.722
  YS02001895           JUNCTION      0.00   493.17     0  02:13           0       0.694       0.205
  YS02001898           JUNCTION      0.00   492.57     0  02:13           0       0.692       0.052
  YS02001901           JUNCTION      0.00   493.38     0  02:13           0       0.695       0.461
  YS02001904           JUNCTION      0.00   493.82     0  02:13           0       0.699       0.410
  YS02001907           JUNCTION      0.00  1472.20     0  02:13           0        2.12       0.850
  YS02001910           JUNCTION      0.00   980.13     0  02:13           0        1.43       0.491
  YS02001915           JUNCTION    529.02   979.64     0  02:13       0.865        1.47       0.102
  YS02001918           JUNCTION      0.00   452.53     0  02:13           0       0.637       0.016
  YS02001920           JUNCTION      2.87   451.88     0  02:13      0.0827        0.62       0.114
  YS02001923           JUNCTION      0.04   406.63     0  02:12     0.00109       0.521      -0.141
  YS02001926           JUNCTION      0.05   630.91     0  02:12      0.0015       0.502      -0.120
  YS02001929           JUNCTION    272.27   467.47     0  02:12       0.487        0.49       0.008
  YS02006553           JUNCTION      0.00   794.49     0  02:22           0        1.89       0.624
  YS02006556           JUNCTION      0.00   794.19     0  02:22           0         1.9       0.428
  YS02006558           JUNCTION    637.10  1170.20     0  02:12       0.978        2.85       0.121
  YS02006561           JUNCTION      0.00  1169.41     0  02:12           0        2.82      -0.001
  YS02163301           JUNCTION      0.00   935.72     0  02:10           0        2.89       0.056
  YS02163601           JUNCTION      0.11  1419.49     0  02:11     0.00317        3.92       0.125
  YS02164001           JUNCTION      0.00  1417.36     0  02:11           0        3.92       0.065
  YSB1154              JUNCTION    275.90   275.90     0  02:14       0.436       0.437       0.340
  YSB1171              JUNCTION      0.00   511.71     0  02:13           0       0.768       0.832
  YSB1174              JUNCTION    236.32   236.32     0  02:13       0.324       0.324       0.401
  YSB6556              JUNCTION      0.00   275.98     0  02:13           0       0.438       0.272
  CC-1                 OUTFALL       0.00   683.00     0  00:00           0        5.22       0.000
  CC-2                 OUTFALL       0.00   683.00     0  00:00           0        1.36       0.000
  JK-1                 OUTFALL       0.00  1000.00     0  00:00           0      0.0484       0.000
  JK-2                 OUTFALL       0.00  1000.00     0  00:00           0        2.67       0.000
  WSC                  OUTFALL       0.00  1479.63     0  02:18           0        12.8       0.000
  CC-storage           STORAGE       0.00  3248.91     0  02:14           0        9.95      -0.313
  JK-storage           STORAGE       0.00  1221.88     0  02:18           0        3.01      -0.572
  XR-storage           STORAGE     200.00   200.00     0  00:00        5.76        6.36       0.001
  
  
  **********************
  Node Surcharge Summary
  **********************
  
  Surcharging occurs when water rises above the top of the highest conduit.
  ---------------------------------------------------------------------
                                               Max. Height   Min. Depth
                                   Hours       Above Crown    Below Rim
  Node                 Type      Surcharged         Meters       Meters
  ---------------------------------------------------------------------
  HS02004478           JUNCTION        0.31          0.727        0.213
  HS02004479           JUNCTION        0.42          0.926        0.124
  HS02004480           JUNCTION        0.46          1.006        0.094
  HS02004770           JUNCTION        0.38          0.720        0.000
  HS02004777           JUNCTION        0.38          0.780        0.000
  HS02004785           JUNCTION        0.34          0.790        0.000
  HS02004788           JUNCTION        0.32          0.720        0.000
  HS02004792           JUNCTION        0.43          0.900        0.000
  HS02004799           JUNCTION        0.54          1.060        0.000
  HS02004802           JUNCTION        0.46          1.131        0.079
  HS02004807           JUNCTION        0.44          1.220        0.000
  HS02004817           JUNCTION        0.94          1.701        0.039
  HS02004824           JUNCTION        0.33          1.278        0.032
  HS02004830           JUNCTION        0.30          1.296        0.034
  HS02004837           JUNCTION        0.26          1.231        0.109
  HS02004842           JUNCTION        0.39          1.520        0.000
  HS02004848           JUNCTION        0.23          1.297        0.073
  HS02004852           JUNCTION        0.25          1.354        0.066
  HS02004856           JUNCTION        0.24          1.300        0.000
  HS02004862           JUNCTION        0.27          1.300        0.000
  HS02004870           JUNCTION        0.28          1.247        0.153
  HS02004876           JUNCTION        0.35          1.290        0.270
  HS02004881           JUNCTION        0.33          1.240        0.210
  HS02004901           JUNCTION        0.38          0.720        0.000
  WS02004401           JUNCTION        1.30          0.797        0.863
  WS02004402           JUNCTION        1.31          0.743        0.997
  WS02004403           JUNCTION        1.31          0.670        1.360
  WS02004404           JUNCTION        1.45          0.683        2.097
  WS02004405           JUNCTION        1.41          0.636        2.164
  WS02004406           JUNCTION        1.38          0.529        1.921
  WS02004409           JUNCTION        0.70          0.358        2.002
  WS02004410           JUNCTION        0.68          0.274        2.266
  WS02004411           JUNCTION        0.63          0.185        2.345
  WS02004412           JUNCTION        0.56          0.091        2.219
  WS02004413           JUNCTION        0.96          0.136        2.064
  WS02006109           JUNCTION        1.83          1.820        0.000
  WS02006110           JUNCTION        1.52          1.459        0.391
  WS02006111           JUNCTION        0.89          0.862        1.008
  WS02006112           JUNCTION        1.60          1.290        0.390
  WS02006113           JUNCTION        0.92          1.014        0.916
  WS02006115           JUNCTION        1.15          0.872        1.378
  WS02006116           JUNCTION        1.16          0.817        1.473
  WS02006228           JUNCTION        1.82          2.200        0.000
  WS02006229           JUNCTION        0.67          1.070        0.000
  WS02006230           JUNCTION        1.44          1.570        0.000
  WS02006231           JUNCTION        1.45          1.479        0.051
  WS02006232           JUNCTION        1.60          1.480        0.000
  WS02006234           JUNCTION        1.45          1.240        0.000
  WS02006235           JUNCTION        1.48          1.207        0.083
  WS02006238           JUNCTION        1.51          1.200        0.230
  WS02006239           JUNCTION        1.45          1.036        0.254
  WS02006240           JUNCTION        1.44          0.916        0.474
  WS02006242           JUNCTION        1.46          0.820        0.000
  WS02006243           JUNCTION        1.41          0.763        0.007
  WS02006245           JUNCTION        1.39          0.658        0.192
  WS02006247           JUNCTION        1.39          0.593        0.167
  WS02006248           JUNCTION        1.37          0.380        0.000
  WS02006249           JUNCTION        1.38          0.390        0.000
  WS02006251           JUNCTION        1.33          1.180        0.000
  WS02006252           JUNCTION        1.47          1.100        0.000
  WS02006253           JUNCTION        1.34          2.273        0.207
  WS02006256           JUNCTION        6.79          2.050        0.000
  WS02006280           JUNCTION        0.55          0.748        0.032
  WS02006284           JUNCTION        0.48          0.748        0.052
  WS02006287           JUNCTION        0.40          0.817        0.073
  YS02001580           JUNCTION        0.34          0.450        0.000
  YS02001583           JUNCTION        0.34          0.500        0.000
  YS02001586           JUNCTION        0.44          0.510        0.000
  YS02001590           JUNCTION        0.50          0.731        0.019
  YS02001593           JUNCTION        0.51          0.692        0.148
  YS02001596           JUNCTION        0.60          0.943        0.127
  YS02001600           JUNCTION        0.72          1.190        0.000
  YS02001601           JUNCTION        1.07          1.440        0.000
  YS02001602           JUNCTION        0.95          1.270        0.000
  YS02001605           JUNCTION        0.89          1.175        0.005
  YS02001607           JUNCTION        0.46          0.646        0.034
  YS02001610           JUNCTION        0.48          0.680        0.000
  YS02001613           JUNCTION        0.46          0.655        0.045
  YS02001616           JUNCTION        0.42          0.591        0.019
  YS02001619           JUNCTION        0.41          0.586        0.024
  YS02001622           JUNCTION        0.41          0.563        0.057
  YS02001625           JUNCTION        0.56          0.780        0.000
  YS02001629           JUNCTION        0.35          0.470        0.000
  YS02001633           JUNCTION        0.57          0.982        0.078
  YS02001641           JUNCTION        0.50          0.950        0.150
  YS02001644           JUNCTION        0.46          0.920        0.000
  YS02001647           JUNCTION        0.27          0.698        0.202
  YS02001649           JUNCTION        0.35          0.830        0.220
  YS02001652           JUNCTION        0.19          0.676        0.454
  YS02001655           JUNCTION        0.09          0.622        0.578
  YS02001658           JUNCTION        0.01          0.524        0.776
  YS02001751           JUNCTION        0.03          0.463        0.737
  YS02001754           JUNCTION        0.10          0.490        0.660
  YS02001757           JUNCTION        0.38          0.756        0.454
  YS02001759           JUNCTION        0.29          0.721        0.489
  YS02001762           JUNCTION        0.26          0.716        0.434
  YS02001765           JUNCTION        0.23          0.694        0.406
  YS02001767           JUNCTION        0.21          0.695        0.335
  YS02001770           JUNCTION        0.19          0.800        0.120
  YS02001774           JUNCTION        0.25          0.991        0.059
  YS02001779           JUNCTION        0.12          0.680        0.000
  YS02001783           JUNCTION        0.31          0.645        0.955
  YS02001784           JUNCTION        0.29          0.439        1.051
  YS02001786           JUNCTION        0.20          0.164        1.266
  YS02001882           JUNCTION        0.26          0.681        0.149
  YS02001884           JUNCTION        0.27          0.708        0.162
  YS02001887           JUNCTION        0.30          0.774        0.176
  YS02001890           JUNCTION        0.31          0.760        0.000
  YS02001895           JUNCTION        0.25          0.574        0.176
  YS02001898           JUNCTION        0.25          0.558        0.182
  YS02001901           JUNCTION        0.29          0.704        0.166
  YS02001904           JUNCTION        0.28          0.658        0.192
  YS02001907           JUNCTION        0.49          0.950        0.000
  YS02001910           JUNCTION        0.33          0.960        0.140
  YS02001915           JUNCTION        0.26          0.905        0.095
  YS02001918           JUNCTION        0.19          0.810        0.000
  YS02001920           JUNCTION        0.20          1.140        0.000
  YS02001923           JUNCTION        0.01          0.820        0.000
  YS02001926           JUNCTION        0.01          0.900        0.000
  YS02001929           JUNCTION        0.01          0.780        0.000
  YS02006553           JUNCTION        0.50          0.999        0.191
  YS02006556           JUNCTION        0.41          0.965        0.385
  YS02006558           JUNCTION        0.40          0.973        0.427
  YS02006561           JUNCTION        0.16          0.355        0.795
  YS02163301           JUNCTION        0.56          0.910        0.120
  YS02163601           JUNCTION        0.60          1.029        0.051
  YS02164001           JUNCTION        0.51          0.949        0.151
  YSB1154              JUNCTION        0.64          1.167        0.233
  YSB1171              JUNCTION        0.64          1.100        0.000
  YSB1174              JUNCTION        0.57          1.080        0.170
  YSB6556              JUNCTION        0.52          1.024        0.076
  
  
  *********************
  Node Flooding Summary
  *********************
  
  Flooding refers to all water that overflows a node, whether it ponds or not.
  --------------------------------------------------------------------------
                                                             Total   Maximum
                                 Maximum   Time of Max       Flood    Ponded
                        Hours       Rate    Occurrence      Volume     Depth
  Node                 Flooded       LPS   days hr:min    10^6 ltr    Meters
  --------------------------------------------------------------------------
  HS02004770              0.22    542.11      0  02:13       0.243     0.000
  HS02004777              0.01     41.71      0  02:08       0.000     0.000
  HS02004785              0.01    138.71      0  02:08       0.000     0.000
  HS02004788              0.01    158.37      0  02:08       0.001     0.000
  HS02004792              0.22    975.81      0  02:14       0.420     0.000
  HS02004799              0.04     88.50      0  02:11       0.003     0.000
  HS02004807              0.01     17.68      0  02:11       0.000     0.000
  HS02004842              0.01     77.35      0  02:11       0.001     0.000
  HS02004856              0.01    445.04      0  02:11       0.002     0.000
  HS02004862              0.01    197.65      0  02:11       0.000     0.000
  HS02004901              0.27    485.39      0  02:15       0.346     0.000
  WS02006109              0.26    208.98      0  02:13       0.110     0.000
  WS02006228              0.01      6.21      0  02:11       0.000     0.000
  WS02006229              0.01      8.73      0  02:11       0.000     0.000
  WS02006230              0.49    545.08      0  02:13       0.589     0.000
  WS02006232              0.11      0.60      0  02:30       0.000     0.000
  WS02006234              0.52     54.31      0  02:10       0.096     0.000
  WS02006242              0.60    122.91      0  02:26       0.243     0.000
  WS02006248              0.78    338.99      0  02:16       0.833     0.000
  WS02006249              1.34   1268.45      0  02:12       2.819     0.000
  WS02006251              0.01     59.02      0  02:11       0.000     0.000
  WS02006252              0.28    300.10      0  02:17       0.135     0.000
  WS02006256              0.25    293.19      0  00:00       0.073     0.000
  YS02001580              0.01     79.84      0  02:08       0.000     0.000
  YS02001583              0.01     31.44      0  02:08       0.000     0.000
  YS02001586              0.24    135.97      0  02:15       0.068     0.000
  YS02001600              0.01      0.32      0  02:09       0.000     0.000
  YS02001601              0.38    709.94      0  02:14       0.559     0.000
  YS02001602              0.27     61.97      0  02:21       0.052     0.000
  YS02001610              0.22    279.67      0  02:15       0.146     0.000
  YS02001625              0.18    654.52      0  02:15       0.211     0.000
  YS02001629              0.02     28.23      0  02:14       0.001     0.000
  YS02001644              0.01     18.17      0  02:14       0.000     0.000
  YS02001779              0.01    218.55      0  02:12       0.002     0.000
  YS02001890              0.02     32.06      0  02:12       0.001     0.000
  YS02001907              0.14    958.20      0  02:13       0.223     0.000
  YS02001918              0.01    192.78      0  02:12       0.002     0.000
  YS02001920              0.01     34.30      0  02:12       0.000     0.000
  YS02001923              0.01    129.93      0  02:12       0.000     0.000
  YS02001926              0.01    188.42      0  02:12       0.001     0.000
  YS02001929              0.01     69.05      0  02:12       0.000     0.000
  YSB1171                 0.11    339.47      0  02:14       0.084     0.000
  
  
  **********************
  Storage Volume Summary
  **********************
  
  --------------------------------------------------------------------------------------------------
                         Average     Avg  Evap Exfil       Maximum     Max    Time of Max    Maximum
                          Volume    Pcnt  Pcnt  Pcnt        Volume    Pcnt     Occurrence    Outflow
  Storage Unit           1000 m3    Full  Loss  Loss       1000 m3    Full    days hr:min        LPS
  --------------------------------------------------------------------------------------------------
  CC-storage               1.982      31     0     0         3.902      61       0  02:32    1783.53
  JK-storage               0.072      25     0     0         0.171      59       0  02:26    2300.00
  XR-storage               0.943      65     0     0         1.111      77       0  08:00     380.00
  
  
  ***********************
  Outfall Loading Summary
  ***********************
  
  -----------------------------------------------------------
                         Flow       Avg       Max       Total
                         Freq      Flow      Flow      Volume
  Outfall Node           Pcnt       LPS       LPS    10^6 ltr
  -----------------------------------------------------------
  CC-1                  51.21    683.00    683.00       5.224
  CC-2                  16.17    683.00    683.00       1.364
  JK-1                   0.18   1000.00   1000.00       0.048
  JK-2                  15.20   1000.00   1000.00       2.673
  WSC                   99.95    599.47   1479.63      12.776
  -----------------------------------------------------------
  System                36.54   3965.47   1479.63      22.086
  
  
  ********************
  Link Flow Summary
  ********************
  
  -----------------------------------------------------------------------------
                                 Maximum  Time of Max   Maximum    Max/    Max/
                                  |Flow|   Occurrence   |Veloc|    Full    Full
  Link                 Type          LPS  days hr:min     m/sec    Flow   Depth
  -----------------------------------------------------------------------------
  1                    CONDUIT   1479.63     0  02:18      3.68    0.52    0.51
  HS02004478WS02006287 CONDUIT   2247.26     0  02:13      2.61    0.63    1.00
  HS02004479HS02004480 CONDUIT    455.72     0  02:11      0.65    0.44    1.00
  HS02004480HS02004478 CONDUIT   2111.69     0  02:09      3.02    8.89    1.00
  HS02004770HS02004777 CONDUIT    763.04     0  02:08      1.09    1.40    1.00
  HS02004777HS02004785 CONDUIT    787.90     0  02:08      1.18    0.97    1.00
  HS02004785HS02004788 CONDUIT    619.99     0  02:24      1.36    4.67    1.00
  HS02004788HS02004792 CONDUIT    807.69     0  02:08      1.42    0.53    1.00
  HS02004792HS02004799 CONDUIT   1630.49     0  02:09      2.33    1.00    1.00
  HS02004799HS02004480 CONDUIT   1767.19     0  02:09      2.52    2.23    1.00
  HS02004802HS02004478 CONDUIT    733.71     0  02:14      1.05    0.65    1.00
  HS02004807HS02004802 CONDUIT    732.90     0  02:14      1.05    1.40    1.00
  HS02004817HS02004807 CONDUIT    463.65     0  02:14      0.66    0.27    1.00
  HS02004817HS02004824 CONDUIT    462.34     0  02:14      0.66    0.21    1.00
  HS02004824HS02004830 CONDUIT    634.17     0  02:09      0.94    0.83    1.00
  HS02004830HS02004837 CONDUIT    643.90     0  02:09      1.00    0.64    1.00
  HS02004837HS02004842 CONDUIT    832.48     0  02:09      1.19    0.50    1.00
  HS02004842HS02004848 CONDUIT    832.10     0  02:09      1.31    0.48    1.00
  HS02004848HS02004852 CONDUIT   1078.92     0  02:11      1.63    1.22    1.00
  HS02004852HS02004856 CONDUIT   1087.94     0  02:11      1.55    1.24    1.00
  HS02004856HS02004862 CONDUIT   1119.68     0  02:11      1.71    1.12    1.00
  HS02004862HS02004870 CONDUIT   1218.17     0  02:11      1.97    1.32    1.00
  HS02004870HS02004876 CONDUIT   1255.06     0  02:11      1.96    0.83    1.00
  HS02004876HS02004881 CONDUIT   1364.23     0  02:12      2.53   14.51    1.00
  HS02004881HS02006253 CONDUIT   1444.83     0  02:12      2.75    0.28    1.00
  HS02004901HS02004770 CONDUIT    265.37     0  02:21      0.38    1.00    1.00
  WS02001211WS02001212 CONDUIT    211.45     0  02:44      0.54    0.16    0.68
  WS02001212WS02001213 CONDUIT    216.72     0  02:44      1.04    0.33    0.55
  WS02001213WS02003059 CONDUIT    221.92     0  02:43      0.47    0.37    0.89
  WS02003059WS02003060 CONDUIT    228.31     0  02:43      0.66    0.15    0.80
  WS02003060WS02003069 CONDUIT   1477.21     0  02:16      2.08    0.58    0.60
  WS02003066WSF200     CONDUIT   1276.31     0  02:14      3.25    0.22    0.38
  WS02003067WS02003066 CONDUIT   1276.19     0  02:14      1.98    0.41    0.56
  WS02003069WS02003072 CONDUIT   1477.35     0  02:17      1.88    0.71    0.66
  WS02003072WS02003073 CONDUIT   1477.47     0  02:17      2.04    3.19    0.61
  WS02004138WS02004139 CONDUIT    190.77     0  00:29      2.16    0.04    0.41
  WS02004139WS02001211 CONDUIT    197.22     0  02:45      0.54    0.25    0.60
  WS02004401WS02004402 CONDUIT   1275.96     0  02:13      1.62    1.53    1.00
  WS02004402WS02004403 CONDUIT   1275.80     0  02:13      1.62    1.83    1.00
  WS02004403WS02004404 CONDUIT   1276.65     0  02:13      1.63    0.92    1.00
  WS02004404WS02004405 CONDUIT   1276.24     0  02:13      1.62   12.50    1.00
  WS02004405WS02004406 CONDUIT   1276.38     0  02:13      1.63    2.52    1.00
  WS02004406WS02004407 CONDUIT   1276.06     0  02:13      1.77    0.57    0.94
  WS02004407WS02004409 CONDUIT   1275.41     0  02:14      1.78    0.45    0.94
  WS02004409WS02004410 CONDUIT   1275.86     0  02:14      1.62    1.65    1.00
  WS02004410WS02004411 CONDUIT   1275.54     0  02:14      1.62    1.74    1.00
  WS02004411WS02004412 CONDUIT   1275.52     0  02:14      1.62    1.81    1.00
  WS02004412WS02004413 CONDUIT   1275.70     0  02:14      1.62    0.85    1.00
  WS02004413WS02003067 CONDUIT   1275.69     0  02:14      1.98    0.55    0.76
  WS02006109WS02006110 CONDUIT   1118.70     0  02:24      2.23    2.15    1.00
  WS02006110WS02006113 CONDUIT   1118.79     0  02:24      2.23    1.02    1.00
  WS02006111WS02006112 CONDUIT   1119.21     0  02:24      2.23    0.53    1.00
  WS02006112WS02006115 CONDUIT   1275.45     0  02:13      1.62    0.75    1.00
  WS02006113WS02006111 CONDUIT   1119.00     0  02:24      2.60    1.34    1.00
  WS02006115WS02006116 CONDUIT   1276.17     0  02:13      1.62    1.64    1.00
  WS02006116WS02004401 CONDUIT   1275.85     0  02:12      1.62    1.76    1.00
  WS02006228WS02006109 CONDUIT   1259.69     0  02:13      2.51    5.50    1.00
  WS02006229WS02006228 CONDUIT   1260.13     0  02:13      2.51    4.17    1.00
  WS02006230WS02006229 CONDUIT    987.77     0  02:13      2.57   21.98    1.00
  WS02006231WS02006230 CONDUIT    476.91     0  03:10      1.24    7.23    1.00
  WS02006232WS02006231 CONDUIT    475.57     0  03:10      1.24    1.00    1.00
  WS02006234WS02006232 CONDUIT    473.90     0  03:10      1.41    0.96    1.00
  WS02006235WS02006234 CONDUIT    469.81     0  03:10      1.22    4.96    1.00
  WS02006238WS02006235 CONDUIT    401.30     0  02:27      1.54    0.90    1.00
  WS02006239WS02006238 CONDUIT    400.70     0  02:21      1.11    1.28    1.00
  WS02006240WS02006239 CONDUIT    400.38     0  02:26      1.26    1.26    1.00
  WS02006242WS02006240 CONDUIT    400.55     0  02:21      1.14    1.59    1.00
  WS02006243WS02006242 CONDUIT    399.81     0  03:20      1.34    0.85    1.00
  WS02006245WS02006243 CONDUIT    399.70     0  03:20      1.39    1.18    1.00
  WS02006247WS02006245 CONDUIT    399.79     0  03:20      1.37    3.17    1.00
  WS02006248WS02006247 CONDUIT    399.83     0  03:20      1.38    0.87    1.00
  WS02006249WS02006248 CONDUIT    400.80     0  03:20      1.38    2.20    1.00
  WS02006251WS02006249 CONDUIT   1329.12     0  02:12      3.45    3.83    1.00
  WS02006252WS02006251 CONDUIT    409.69     0  02:36     25.81    1.50    1.00
  WS02006253WS02006251 CONDUIT   1472.67     0  02:12      3.83    4.42    1.00
  WS02006256WS02006235 CONDUIT    288.93     0  00:00      4.23    3.06    1.00
  WS02006280WS02006229 CONDUIT   2248.69     0  02:13      4.51    0.48    1.00
  WS02006284WS02006280 CONDUIT   2247.59     0  02:13      3.02    0.94    1.00
  WS02006287WS02006284 CONDUIT   2247.02     0  02:13      2.86    1.04    1.00
  WSF200WS02003060     CONDUIT   1275.64     0  02:14      2.30    0.28    0.50
  YS02001580YS02001583 CONDUIT    116.00     0  02:08      0.66    0.45    1.00
  YS02001583YS02001586 CONDUIT    163.83     0  02:08      0.68    0.25    1.00
  YS02001586YS02001590 CONDUIT    317.98     0  02:19      1.27    0.56    1.00
  YS02001590YS02001593 CONDUIT    317.99     0  02:13      1.12    2.00    1.00
  YS02001593YS02001596 CONDUIT    317.94     0  02:19      1.74    0.50    1.00
  YS02001596YS02001600 CONDUIT    318.02     0  02:13      1.22    0.62    1.00
  YS02001600YS02001601 CONDUIT    317.83     0  02:20      1.12    0.55    1.00
  YS02001601YS02001602 CONDUIT    515.96     0  02:08      1.82    1.86    1.00
  YS02001602YS02001605 CONDUIT    515.34     0  02:08      1.82   10.91    1.00
  YS02001605YS02001607 CONDUIT    514.98     0  02:08      1.82    2.82    1.00
  YS02001607YS02001610 CONDUIT    515.64     0  02:08      0.66    0.49    1.00
  YS02001610YS02001613 CONDUIT    516.55     0  02:08      0.66    0.60    1.00
  YS02001613YS02001616 CONDUIT    518.63     0  02:08      0.66    0.44    1.00
  YS02001616YS02001619 CONDUIT    502.71     0  02:08      0.67    0.87    1.00
  YS02001619YS02001622 CONDUIT    937.20     0  02:11      1.19    1.38    1.00
  YS02001622YS02001625 CONDUIT    936.25     0  02:11      1.19    0.50    1.00
  YS02001625YS02001629 CONDUIT    935.66     0  02:10      1.19    0.44    1.00
  YS02001629YS02163301 CONDUIT    935.72     0  02:10      1.19    1.15    1.00
  YS02001633YS02163601 CONDUIT   1419.38     0  02:11      1.81    1.49    1.00
  YS02001641YS02001644 CONDUIT   1414.10     0  02:11      1.80    4.57    1.00
  YS02001644YS02001647 CONDUIT   1839.41     0  02:11      2.36    1.08    1.00
  YS02001647YS02001649 CONDUIT   1861.06     0  02:11      2.39    0.98    1.00
  YS02001649YS02001757 CONDUIT   2124.38     0  02:11      2.71    1.29    1.00
  YS02001652YS02001649 CONDUIT    601.81     0  02:16      0.77    0.30    1.00
  YS02001655YS02001652 CONDUIT    601.62     0  02:16      1.30    0.29    1.00
  YS02001658YS02001655 CONDUIT    602.91     0  02:16      1.93    0.26    1.00
  YS02001661YS02001658 CONDUIT    696.46     0  02:13      2.37    0.27    0.84
  YS02001664YS02001661 CONDUIT    532.48     0  02:13      2.35    0.17    0.52
  YS02001745YS02001748 CONDUIT    499.21     0  02:15      2.20    0.19    0.62
  YS02001748YS02001751 CONDUIT    489.04     0  02:16      1.73    0.25    0.98
  YS02001751YS02001754 CONDUIT    379.66     0  02:16      1.43    0.18    1.00
  YS02001754YS02001757 CONDUIT    381.37     0  02:15      0.49    0.15    1.00
  YS02001757CaochengTiaoxuchi CONDUIT   3248.91     0  02:14      4.23    1.41    1.00
  YS02001759YS02001757 CONDUIT   1167.74     0  02:12      1.49    0.83    1.00
  YS02001762YS02001759 CONDUIT    702.50     0  02:12      0.89    0.81    1.00
  YS02001765YS02001762 CONDUIT    693.69     0  02:12      0.88    0.65    1.00
  YS02001767YS02001765 CONDUIT    683.95     0  02:12      0.87    0.86    1.00
  YS02001770YS02001767 CONDUIT    675.46     0  02:12      0.86    2.68    1.00
  YS02001774YS02001770 CONDUIT    300.40     0  02:12      0.38    0.19    1.00
  YS02001779YS02001774 CONDUIT    303.14     0  02:12      0.39    0.15    1.00
  YS02001783YS02001784 CONDUIT   1152.74     0  02:13      2.29    1.59    1.00
  YS02001784YS02001785 CONDUIT   1153.52     0  02:13      2.29    2.68    1.00
  YS02001786YS02001788 CONDUIT   1154.14     0  02:13      2.47    2.22    0.89
  YS02001788YS02001790 CONDUIT   1166.63     0  02:12      2.71    0.86    0.83
  YS02001790YS02001791 CONDUIT   1274.20     0  02:16      3.41    1.39    0.70
  YS02001791YS02001793 CONDUIT   1220.71     0  02:18      6.75    0.52    0.40
  YS02001793JiankangQianchi CONDUIT   1221.88     0  02:18      2.46    0.10    0.61
  YS02001882YS02001884 CONDUIT     53.05     0  02:10      0.10    0.06    1.00
  YS02001884YS02001887 CONDUIT     76.73     0  02:10      0.10    0.10    1.00
  YS02001887YS02001890 CONDUIT    500.62     0  02:13      0.64    0.86    1.00
  YS02001890YS02001895 CONDUIT    493.17     0  02:13      0.63    0.23    1.00
  YS02001895YS02001898 CONDUIT    492.57     0  02:13      0.63    0.85    1.00
  YS02001898YS02001901 CONDUIT    493.38     0  02:13      0.63    0.32    1.00
  YS02001901YS02001904 CONDUIT    493.82     0  02:13      0.63    0.77    1.00
  YS02001904YS02001907 CONDUIT    493.50     0  02:13      0.63    0.17    1.00
  YS02001907YS02006553 CONDUIT    794.49     0  02:22      0.88    0.93    1.00
  YS02001910YS02001907 CONDUIT    980.26     0  02:13      1.25    0.55    1.00
  YS02001915YS02001910 CONDUIT    980.13     0  02:13      1.25    0.49    1.00
  YS02001918YS02001915 CONDUIT    454.33     0  02:13      0.58    0.25    1.00
  YS02001920YS02001918 CONDUIT    452.53     0  02:13      0.65    0.44    1.00
  YS02001923YS02001920 CONDUIT    449.01     0  02:13      0.72    0.20    1.00
  YS02001926YS02001923 CONDUIT    403.62     0  02:13      0.98    0.58    1.00
  YS02001929YS02001926 CONDUIT    399.93     0  02:13      1.16    0.19    1.00
  YS02006553YS02006556 CONDUIT    794.19     0  02:22      1.01    0.68    1.00
  YS02006556YS02006558 CONDUIT    796.50     0  02:22      1.01    0.63    1.00
  YS02006558YS02006561 CONDUIT   1169.41     0  02:12      4.14    2.58    1.00
  YS02006561YS02001783 CONDUIT   1152.41     0  02:13      2.29    0.60    1.00
  YS02163301YS02001633 CONDUIT    936.34     0  02:10      1.19    0.88    1.00
  YS02163601YS02164001 CONDUIT   1417.36     0  02:11      1.80    1.26    1.00
  YS02164001YS02001641 CONDUIT   1413.81     0  02:11      1.80    1.93    1.00
  YSB1154YSB6556       CONDUIT    275.98     0  02:13      0.72    0.50    1.00
  YSB1171HS02004479    CONDUIT    456.86     0  02:11      0.91    0.30    1.00
  YSB1174YSB1171       CONDUIT    236.77     0  02:13      0.62    0.36    1.00
  YSB6556YSB1171       CONDUIT    276.14     0  02:14      0.72    0.28    1.00
  CC-R1                PUMP       683.00     0  00:00              1.00
  CC-R2                PUMP       683.00     0  00:00              1.00
  CC-S1                PUMP       200.00     0  00:00              1.00
  CC-S2                PUMP       200.00     0  00:00              1.00
  JK-R1                PUMP      1000.00     0  00:00              1.00
  JK-R2                PUMP      1000.00     0  00:00              1.00
  JK-S                 PUMP       300.00     0  00:00              1.00
  XR-1                 PUMP        95.00     0  00:00              1.00
  XR-2                 PUMP        95.00     0  00:00              1.00
  XR-3                 PUMP        95.00     0  00:00              1.00
  XR-4                 PUMP        95.00     0  00:00              1.00
  
  
  ***************************
  Flow Classification Summary
  ***************************
  
  -------------------------------------------------------------------------------------
                      Adjusted    ---------- Fraction of Time in Flow Class ---------- 
                       /Actual         Up    Down  Sub   Sup   Up    Down  Norm  Inlet 
  Conduit               Length    Dry  Dry   Dry   Crit  Crit  Crit  Crit  Ltd   Ctrl  
  -------------------------------------------------------------------------------------
  1                       1.00   0.00  0.00  0.00  0.00  1.00  0.00  0.00  0.30  0.00
  HS02004478WS02006287    1.00   0.11  0.00  0.00  0.61  0.27  0.00  0.00  0.61  0.00
  HS02004479HS02004480    1.00   0.05  0.00  0.00  0.95  0.00  0.00  0.00  0.12  0.00
  HS02004480HS02004478    1.00   0.10  0.00  0.00  0.45  0.00  0.00  0.45  0.00  0.00
  HS02004770HS02004777    1.00   0.00  0.09  0.00  0.91  0.00  0.00  0.00  0.03  0.00
  HS02004777HS02004785    1.00   0.00  0.00  0.00  1.00  0.00  0.00  0.00  0.13  0.00
  HS02004785HS02004788    1.00   0.00  0.00  0.00  1.00  0.00  0.00  0.00  0.00  0.00
  HS02004788HS02004792    1.00   0.00  0.00  0.00  0.99  0.01  0.00  0.00  0.92  0.00
  HS02004792HS02004799    1.00   0.00  0.00  0.00  0.98  0.02  0.00  0.00  0.89  0.00
  HS02004799HS02004480    1.00   0.00  0.05  0.00  0.89  0.00  0.06  0.00  0.00  0.00
  HS02004802HS02004478    1.00   0.10  0.00  0.00  0.90  0.00  0.00  0.00  0.03  0.00
  HS02004807HS02004802    1.00   0.10  0.00  0.00  0.90  0.00  0.00  0.01  0.00  0.00
  HS02004817HS02004807    1.00   0.00  0.10  0.00  0.90  0.00  0.00  0.00  0.01  0.00
  HS02004817HS02004824    1.00   0.00  0.00  0.00  1.00  0.00  0.00  0.00  0.85  0.00
  HS02004824HS02004830    1.00   0.00  0.00  0.00  1.00  0.00  0.00  0.00  0.01  0.00
  HS02004830HS02004837    1.00   0.00  0.00  0.00  1.00  0.00  0.00  0.00  0.91  0.00
  HS02004837HS02004842    1.00   0.00  0.00  0.00  1.00  0.00  0.00  0.00  0.11  0.00
  HS02004842HS02004848    1.00   0.00  0.09  0.00  0.90  0.00  0.00  0.00  0.59  0.00
  HS02004848HS02004852    1.00   0.10  0.00  0.00  0.90  0.00  0.00  0.00  0.70  0.00
  HS02004852HS02004856    1.00   0.09  0.01  0.00  0.90  0.00  0.00  0.00  0.71  0.00
  HS02004856HS02004862    1.00   0.00  0.12  0.00  0.88  0.00  0.00  0.00  0.75  0.00
  HS02004862HS02004870    1.00   0.00  0.00  0.00  1.00  0.00  0.00  0.00  0.04  0.00
  HS02004870HS02004876    1.00   0.00  0.00  0.00  0.99  0.01  0.00  0.00  0.88  0.00
  HS02004876HS02004881    1.00   0.04  0.00  0.00  0.75  0.21  0.00  0.00  0.00  0.00
  HS02004881HS02006253    1.00   0.03  0.03  0.00  0.42  0.02  0.00  0.50  0.16  0.00
  HS02004901HS02004770    1.00   0.09  0.00  0.00  0.91  0.00  0.00  0.00  0.00  0.00
  WS02001211WS02001212    1.00   0.00  0.04  0.00  0.96  0.00  0.00  0.00  0.00  0.00
  WS02001212WS02001213    1.00   0.04  0.00  0.00  0.49  0.00  0.47  0.00  0.00  0.00
  WS02001213WS02003059    1.00   0.00  0.00  0.00  0.99  0.00  0.00  0.00  0.00  0.00
  WS02003059WS02003060    1.00   0.00  0.00  0.00  1.00  0.00  0.00  0.00  0.03  0.00
  WS02003060WS02003069    1.00   0.00  0.00  0.00  0.99  0.01  0.00  0.00  0.56  0.00
  WS02003066WSF200        1.00   0.07  0.00  0.00  0.00  0.93  0.00  0.00  0.70  0.00
  WS02003067WS02003066    1.00   0.07  0.00  0.00  0.93  0.00  0.00  0.00  0.00  0.00
  WS02003069WS02003072    1.00   0.00  0.00  0.00  1.00  0.00  0.00  0.00  0.70  0.00
  WS02003072WS02003073    1.00   0.00  0.00  0.00  0.00  0.00  0.00  1.00  0.00  0.00
  WS02004138WS02004139    1.00   0.00  0.01  0.00  0.96  0.01  0.00  0.02  0.98  0.00
  WS02004139WS02001211    1.00   0.00  0.00  0.00  0.99  0.00  0.00  0.00  0.00  0.00
  WS02004401WS02004402    1.00   0.04  0.00  0.00  0.96  0.00  0.00  0.00  0.00  0.00
  WS02004402WS02004403    1.00   0.04  0.00  0.00  0.96  0.00  0.00  0.00  0.00  0.00
  WS02004403WS02004404    1.00   0.00  0.05  0.00  0.95  0.00  0.00  0.00  0.00  0.00
  WS02004404WS02004405    1.00   0.00  0.00  0.00  1.00  0.00  0.00  0.00  0.01  0.00
  WS02004405WS02004406    1.00   0.00  0.00  0.00  1.00  0.00  0.00  0.00  0.00  0.00
  WS02004406WS02004407    1.00   0.00  0.05  0.00  0.94  0.00  0.00  0.00  0.00  0.00
  WS02004407WS02004409    1.00   0.06  0.00  0.00  0.94  0.00  0.00  0.00  0.87  0.00
  WS02004409WS02004410    1.00   0.06  0.00  0.00  0.94  0.00  0.00  0.00  0.00  0.00
  WS02004410WS02004411    1.00   0.06  0.00  0.00  0.94  0.00  0.00  0.00  0.00  0.00
  WS02004411WS02004412    1.00   0.06  0.00  0.00  0.94  0.00  0.00  0.00  0.00  0.00
  WS02004412WS02004413    1.00   0.06  0.00  0.00  0.94  0.00  0.00  0.00  0.01  0.00
  WS02004413WS02003067    1.00   0.06  0.01  0.00  0.00  0.00  0.93  0.00  0.00  0.00
  WS02006109WS02006110    1.00   0.00  0.01  0.00  0.97  0.00  0.03  0.00  0.00  0.00
  WS02006110WS02006113    1.00   0.01  0.03  0.00  0.97  0.00  0.00  0.00  0.00  0.00
  WS02006111WS02006112    1.00   0.04  0.00  0.00  0.96  0.00  0.00  0.00  0.80  0.00
  WS02006112WS02006115    1.00   0.04  0.00  0.00  0.96  0.00  0.00  0.00  0.00  0.00
  WS02006113WS02006111    1.00   0.04  0.00  0.00  0.23  0.73  0.00  0.00  0.06  0.00
  WS02006115WS02006116    1.00   0.04  0.00  0.00  0.95  0.00  0.00  0.01  0.00  0.00
  WS02006116WS02004401    1.00   0.04  0.00  0.00  0.96  0.00  0.00  0.00  0.00  0.00
  WS02006228WS02006109    1.00   0.00  0.00  0.00  1.00  0.00  0.00  0.00  0.00  0.00
  WS02006229WS02006228    1.00   0.00  0.00  0.00  0.99  0.00  0.00  0.01  0.00  0.00
  WS02006230WS02006229    1.00   0.00  0.00  0.00  0.97  0.00  0.00  0.03  0.02  0.00
  WS02006231WS02006230    1.00   0.00  0.00  0.00  0.51  0.00  0.48  0.00  0.00  0.00
  WS02006232WS02006231    1.00   0.00  0.00  0.00  0.99  0.00  0.01  0.00  0.00  0.00
  WS02006234WS02006232    1.00   0.00  0.00  0.00  1.00  0.00  0.00  0.00  0.08  0.00
  WS02006235WS02006234    1.00   0.00  0.00  0.00  0.93  0.00  0.07  0.00  0.00  0.00
  WS02006238WS02006235    1.00   0.00  0.00  0.00  1.00  0.00  0.00  0.00  0.01  0.00
  WS02006239WS02006238    1.00   0.00  0.00  0.00  1.00  0.00  0.00  0.00  0.14  0.00
  WS02006240WS02006239    1.00   0.00  0.00  0.00  0.76  0.00  0.00  0.24  0.06  0.00
  WS02006242WS02006240    1.00   0.00  0.00  0.00  1.00  0.00  0.00  0.00  0.00  0.00
  WS02006243WS02006242    1.00   0.00  0.00  0.00  0.99  0.00  0.00  0.00  0.70  0.00
  WS02006245WS02006243    1.00   0.00  0.00  0.00  0.82  0.00  0.00  0.18  0.00  0.00
  WS02006247WS02006245    1.00   0.00  0.00  0.00  0.99  0.00  0.00  0.00  0.00  0.00
  WS02006248WS02006247    1.00   0.00  0.00  0.00  1.00  0.00  0.00  0.00  0.61  0.00
  WS02006249WS02006248    1.00   0.00  0.00  0.00  0.57  0.00  0.43  0.00  0.00  0.00
  WS02006251WS02006249    1.00   0.00  0.00  0.00  1.00  0.00  0.00  0.00  0.66  0.00
  WS02006252WS02006251    1.00   0.00  0.52  0.00  0.27  0.00  0.21  0.00  0.00  0.00
  WS02006253WS02006251    1.00   0.00  0.00  0.00  0.98  0.00  0.02  0.00  0.01  0.00
  WS02006256WS02006235    1.00   0.00  0.00  0.00  0.98  0.02  0.00  0.00  0.01  0.00
  WS02006280WS02006229    1.00   0.10  0.00  0.00  0.17  0.05  0.00  0.68  0.01  0.00
  WS02006284WS02006280    1.00   0.10  0.00  0.00  0.12  0.01  0.00  0.76  0.00  0.00
  WS02006287WS02006284    1.00   0.09  0.03  0.00  0.43  0.46  0.00  0.00  0.67  0.00
  WSF200WS02003060        1.00   0.00  0.07  0.00  0.46  0.46  0.00  0.00  0.66  0.00
  YS02001580YS02001583    1.00   0.25  0.50  0.00  0.25  0.00  0.00  0.00  0.67  0.00
  YS02001583YS02001586    1.00   0.32  0.28  0.00  0.40  0.00  0.00  0.00  0.67  0.00
  YS02001586YS02001590    1.00   0.09  0.00  0.00  0.60  0.03  0.00  0.28  0.35  0.00
  YS02001590YS02001593    1.00   0.10  0.00  0.00  0.13  0.00  0.77  0.00  0.00  0.00
  YS02001593YS02001596    1.00   0.10  0.00  0.00  0.15  0.01  0.00  0.74  0.02  0.00
  YS02001596YS02001600    1.00   0.10  0.00  0.00  0.25  0.02  0.00  0.63  0.05  0.00
  YS02001600YS02001601    1.00   0.10  0.00  0.00  0.90  0.00  0.00  0.00  0.64  0.00
  YS02001601YS02001602    1.00   0.09  0.00  0.00  0.90  0.00  0.00  0.00  0.00  0.00
  YS02001602YS02001605    1.00   0.10  0.00  0.00  0.90  0.00  0.00  0.00  0.00  0.00
  YS02001605YS02001607    1.00   0.10  0.00  0.00  0.90  0.00  0.00  0.00  0.00  0.00
  YS02001607YS02001610    1.00   0.10  0.00  0.00  0.90  0.00  0.00  0.00  0.02  0.00
  YS02001610YS02001613    1.00   0.10  0.00  0.00  0.90  0.00  0.00  0.00  0.01  0.00
  YS02001613YS02001616    1.00   0.10  0.00  0.00  0.90  0.00  0.00  0.00  0.01  0.00
  YS02001616YS02001619    1.00   0.09  0.00  0.00  0.91  0.00  0.00  0.00  0.00  0.00
  YS02001619YS02001622    1.00   0.09  0.00  0.00  0.91  0.00  0.00  0.00  0.35  0.00
  YS02001622YS02001625    1.00   0.10  0.00  0.00  0.90  0.00  0.00  0.00  0.06  0.00
  YS02001625YS02001629    1.00   0.10  0.03  0.00  0.18  0.00  0.69  0.00  0.00  0.00
  YS02001629YS02163301    1.00   0.11  0.00  0.00  0.89  0.00  0.00  0.00  0.00  0.00
  YS02001633YS02163601    1.00   0.00  0.01  0.00  0.99  0.00  0.00  0.00  0.15  0.00
  YS02001641YS02001644    1.00   0.00  0.00  0.00  1.00  0.00  0.00  0.00  0.00  0.00
  YS02001644YS02001647    1.00   0.00  0.12  0.00  0.88  0.00  0.00  0.00  0.00  0.00
  YS02001647YS02001649    1.00   0.00  0.12  0.00  0.50  0.38  0.00  0.00  0.59  0.00
  YS02001649YS02001757    1.00   0.00  0.00  0.00  0.61  0.39  0.00  0.00  0.53  0.00
  YS02001652YS02001649    1.00   0.00  0.00  0.00  0.97  0.03  0.00  0.00  0.79  0.00
  YS02001655YS02001652    1.00   0.00  0.00  0.00  0.23  0.02  0.00  0.75  0.07  0.00
  YS02001658YS02001655    1.00   0.00  0.10  0.00  0.51  0.38  0.00  0.00  0.74  0.00
  YS02001661YS02001658    1.00   0.10  0.00  0.00  0.34  0.56  0.00  0.00  0.74  0.00
  YS02001664YS02001661    1.00   0.09  0.00  0.00  0.72  0.19  0.00  0.00  0.86  0.00
  YS02001745YS02001748    1.00   0.00  0.00  0.00  0.05  0.02  0.00  0.93  0.04  0.00
  YS02001748YS02001751    1.00   0.00  0.00  0.00  0.73  0.27  0.00  0.00  0.80  0.00
  YS02001751YS02001754    1.00   0.00  0.00  0.00  0.19  0.01  0.00  0.80  0.05  0.00
  YS02001754YS02001757    1.00   0.00  0.00  0.00  1.00  0.00  0.00  0.00  0.86  0.00
  YS02001757CaochengTiaoxuchi    1.00   0.00  0.00  0.00  0.92  0.08  0.00  0.00  0.83  0.00
  YS02001759YS02001757    1.00   0.00  0.00  0.00  1.00  0.00  0.00  0.00  0.64  0.00
  YS02001762YS02001759    1.00   0.00  0.00  0.00  1.00  0.00  0.00  0.00  0.06  0.00
  YS02001765YS02001762    1.00   0.00  0.00  0.00  1.00  0.00  0.00  0.00  0.76  0.00
  YS02001767YS02001765    1.00   0.00  0.00  0.00  1.00  0.00  0.00  0.00  0.00  0.00
  YS02001770YS02001767    1.00   0.00  0.00  0.00  1.00  0.00  0.00  0.00  0.00  0.00
  YS02001774YS02001770    1.00   0.00  0.10  0.00  0.74  0.00  0.16  0.00  0.04  0.00
  YS02001779YS02001774    1.00   0.00  0.00  0.00  1.00  0.00  0.00  0.00  0.80  0.00
  YS02001783YS02001784    1.00   0.00  0.13  0.00  0.87  0.00  0.00  0.00  0.58  0.00
  YS02001784YS02001785    1.00   0.00  0.00  0.00  1.00  0.00  0.00  0.00  0.18  0.00
  YS02001786YS02001788    1.00   0.00  0.00  0.00  0.64  0.36  0.00  0.00  0.00  0.00
  YS02001788YS02001790    1.00   0.00  0.00  0.00  0.16  0.84  0.00  0.00  0.84  0.00
  YS02001790YS02001791    1.00   0.00  0.00  0.00  0.02  0.98  0.00  0.00  0.15  0.00
  YS02001791YS02001793    1.00   0.00  0.00  0.00  0.00  1.00  0.00  0.00  0.00  0.00
  YS02001793JiankangQianchi    1.00   0.00  0.00  0.00  0.97  0.03  0.00  0.00  0.99  0.00
  YS02001882YS02001884    1.00   0.11  0.00  0.00  0.89  0.00  0.00  0.00  0.00  0.00
  YS02001884YS02001887    1.00   0.07  0.02  0.00  0.91  0.00  0.00  0.00  0.00  0.00
  YS02001887YS02001890    1.00   0.00  0.00  0.00  0.95  0.00  0.05  0.00  0.00  0.00
  YS02001890YS02001895    1.00   0.00  0.11  0.00  0.88  0.00  0.00  0.00  0.00  0.00
  YS02001895YS02001898    1.00   0.12  0.00  0.00  0.86  0.00  0.02  0.00  0.00  0.00
  YS02001898YS02001901    1.00   0.12  0.00  0.00  0.88  0.00  0.00  0.00  0.01  0.00
  YS02001901YS02001904    1.00   0.11  0.00  0.00  0.89  0.00  0.00  0.00  0.00  0.00
  YS02001904YS02001907    1.00   0.00  0.11  0.00  0.89  0.00  0.00  0.00  0.00  0.00
  YS02001907YS02006553    1.00   0.00  0.04  0.00  0.96  0.00  0.00  0.00  0.00  0.00
  YS02001910YS02001907    1.00   0.00  0.00  0.00  0.95  0.00  0.00  0.04  0.12  0.00
  YS02001915YS02001910    1.00   0.00  0.00  0.00  0.96  0.04  0.00  0.00  0.17  0.00
  YS02001918YS02001915    1.00   0.00  0.00  0.00  0.96  0.04  0.00  0.00  0.79  0.00
  YS02001920YS02001918    1.00   0.00  0.00  0.00  1.00  0.00  0.00  0.00  0.00  0.00
  YS02001923YS02001920    1.00   0.00  0.00  0.00  1.00  0.00  0.00  0.00  0.95  0.00
  YS02001926YS02001923    1.00   0.00  0.07  0.00  0.05  0.00  0.88  0.00  0.00  0.00
  YS02001929YS02001926    1.00   0.00  0.09  0.00  0.91  0.00  0.00  0.00  0.85  0.00
  YS02006553YS02006556    1.00   0.02  0.00  0.00  0.98  0.00  0.00  0.00  0.03  0.00
  YS02006556YS02006558    1.00   0.00  0.00  0.00  1.00  0.00  0.00  0.00  0.00  0.00
  YS02006558YS02006561    1.00   0.13  0.00  0.00  0.04  0.83  0.00  0.00  0.18  0.00
  YS02006561YS02001783    1.00   0.13  0.00  0.00  0.09  0.78  0.00  0.00  0.72  0.00
  YS02163301YS02001633    1.00   0.00  0.11  0.00  0.89  0.00  0.00  0.00  0.00  0.00
  YS02163601YS02164001    1.00   0.00  0.08  0.00  0.92  0.00  0.00  0.00  0.00  0.00
  YS02164001YS02001641    1.00   0.01  0.07  0.00  0.92  0.00  0.00  0.00  0.06  0.00
  YSB1154YSB6556          1.00   0.09  0.00  0.00  0.91  0.00  0.00  0.00  0.02  0.00
  YSB1171HS02004479       1.00   0.05  0.00  0.00  0.94  0.00  0.00  0.01  0.10  0.00
  YSB1174YSB1171          1.00   0.06  0.02  0.00  0.92  0.00  0.00  0.00  0.00  0.00
  YSB6556YSB1171          1.00   0.06  0.04  0.00  0.91  0.00  0.00  0.00  0.00  0.00
  
  
  *************************
  Conduit Surcharge Summary
  *************************
  
  ----------------------------------------------------------------------------
                                                           Hours        Hours 
                         --------- Hours Full --------   Above Full   Capacity
  Conduit                Both Ends  Upstream  Dnstream   Normal Flow   Limited
  ----------------------------------------------------------------------------
  HS02004478WS02006287        0.31      0.31      0.46      0.01         0.01
  HS02004479HS02004480        0.46      0.46      0.49      0.01         0.01
  HS02004480HS02004478        0.41      0.46      0.41      1.46         0.41
  HS02004770HS02004777        0.38      0.38      0.38      0.09         0.06
  HS02004777HS02004785        0.34      0.34      0.38      0.01         0.01
  HS02004785HS02004788        0.32      0.34      0.32      1.14         0.32
  HS02004788HS02004792        0.32      0.32      0.43      0.01         0.01
  HS02004792HS02004799        0.43      0.43      0.54      0.01         0.01
  HS02004799HS02004480        0.46      0.46      0.54      0.62         0.01
  HS02004802HS02004478        0.41      0.41      0.47      0.01         0.01
  HS02004807HS02004802        0.44      0.44      0.46      0.09         0.09
  HS02004817HS02004807        0.44      0.44      0.94      0.01         0.01
  HS02004817HS02004824        0.33      0.33      0.94      0.01         0.01
  HS02004824HS02004830        0.30      0.30      0.33      0.01         0.01
  HS02004830HS02004837        0.27      0.27      0.30      0.01         0.01
  HS02004837HS02004842        0.27      0.27      0.39      0.01         0.01
  HS02004842HS02004848        0.23      0.23      0.39      0.01         0.01
  HS02004848HS02004852        0.23      0.23      0.25      0.03         0.01
  HS02004852HS02004856        0.25      0.25      0.27      0.03         0.01
  HS02004856HS02004862        0.24      0.24      0.27      0.02         0.01
  HS02004862HS02004870        0.27      0.27      0.28      0.03         0.02
  HS02004870HS02004876        0.28      0.28      0.35      0.01         0.01
  HS02004876HS02004881        0.33      0.35      0.33      1.16         0.33
  HS02004881HS02006253        0.33      0.33      1.34      0.01         0.01
  HS02004901HS02004770        0.38      0.38      0.38      0.01         0.01
  WS02003072WS02003073        0.01      0.01      0.01      2.11         0.01
  WS02004401WS02004402        1.30      1.30      1.31      1.05         1.05
  WS02004402WS02004403        1.31      1.31      1.31      1.30         1.28
  WS02004403WS02004404        1.31      1.31      1.45      0.01         0.01
  WS02004404WS02004405        1.41      1.45      1.41      2.48         1.41
  WS02004405WS02004406        1.38      1.41      1.38      1.56         1.38
  WS02004406WS02004407        0.01      0.01      1.38      0.01         0.01
  WS02004407WS02004409        0.01      0.01      0.70      0.01         0.01
  WS02004409WS02004410        0.68      0.70      0.68      1.13         0.68
  WS02004410WS02004411        0.63      0.68      0.63      1.20         0.63
  WS02004411WS02004412        0.56      0.63      0.56      1.29         0.56
  WS02004412WS02004413        0.56      0.56      0.96      0.01         0.01
  WS02004413WS02003067        0.01      0.01      0.96      0.01         0.01
  WS02006109WS02006110        1.52      1.52      1.89      1.52         0.01
  WS02006110WS02006113        0.92      0.92      1.85      0.22         0.01
  WS02006111WS02006112        0.89      0.89      2.05      0.01         0.01
  WS02006112WS02006115        1.15      1.15      1.60      0.01         0.01
  WS02006113WS02006111        0.90      0.92      0.91      1.01         0.90
  WS02006115WS02006116        1.16      1.16      1.16      1.12         1.12
  WS02006116WS02004401        1.30      1.30      1.30      1.24         1.23
  WS02006228WS02006109        1.83      1.89      1.83      2.14         1.82
  WS02006229WS02006228        1.82      1.83      1.82      2.04         1.82
  WS02006230WS02006229        1.95      1.98      1.96      2.37         1.04
  WS02006231WS02006230        1.44      1.44      1.46      2.08         0.74
  WS02006232WS02006231        1.45      1.45      1.60      0.01         0.09
  WS02006234WS02006232        1.47      1.47      1.60      0.01         0.01
  WS02006235WS02006234        1.45      1.45      1.48      1.91         0.71
  WS02006238WS02006235        1.50      1.50      1.54      0.01         0.22
  WS02006239WS02006238        1.49      1.49      1.51      0.89         0.30
  WS02006240WS02006239        1.44      1.44      1.45      0.85         0.26
  WS02006242WS02006240        1.44      1.44      1.48      1.23         0.61
  WS02006243WS02006242        1.41      1.41      1.46      0.01         0.01
  WS02006245WS02006243        1.40      1.40      1.41      0.24         0.19
  WS02006247WS02006245        1.39      1.40      1.39      1.68         0.61
  WS02006248WS02006247        1.37      1.37      1.39      0.01         0.01
  WS02006249WS02006248        1.37      1.37      1.38      0.92         0.01
  WS02006251WS02006249        1.37      1.37      1.38      1.32         1.28
  WS02006252WS02006251        1.44      1.44      1.46      1.07         0.01
  WS02006253WS02006251        1.37      1.37      1.37      0.56         0.01
  WS02006256WS02006235        2.30      2.32      6.70      0.29         0.01
  WS02006280WS02006229        0.56      0.56      0.67      0.01         0.01
  WS02006284WS02006280        0.48      0.48      0.55      0.01         0.01
  WS02006287WS02006284        0.40      0.40      0.49      0.13         0.13
  YS02001580YS02001583        0.34      0.34      0.38      0.01         0.01
  YS02001583YS02001586        0.34      0.34      0.44      0.01         0.01
  YS02001586YS02001590        0.45      0.45      0.50      0.01         0.01
  YS02001590YS02001593        0.51      0.51      0.52      0.53         0.01
  YS02001593YS02001596        0.52      0.52      0.60      0.01         0.01
  YS02001596YS02001600        0.64      0.64      0.72      0.01         0.01
  YS02001600YS02001601        0.78      0.78      1.07      0.01         0.01
  YS02001601YS02001602        0.95      0.95      1.12      0.74         0.01
  YS02001602YS02001605        0.89      0.89      0.95      1.92         0.01
  YS02001605YS02001607        0.85      0.89      0.85      1.02         0.85
  YS02001607YS02001610        0.46      0.46      0.48      0.01         0.01
  YS02001610YS02001613        0.46      0.46      0.48      0.01         0.01
  YS02001613YS02001616        0.42      0.42      0.46      0.01         0.01
  YS02001616YS02001619        0.41      0.41      0.42      0.01         0.01
  YS02001619YS02001622        0.41      0.41      0.41      0.53         0.39
  YS02001622YS02001625        0.41      0.41      0.56      0.01         0.01
  YS02001625YS02001629        0.35      0.35      0.56      0.01         0.01
  YS02001629YS02163301        0.55      0.55      0.56      0.23         0.20
  YS02001633YS02163601        0.57      0.57      0.60      0.38         0.38
  YS02001641YS02001644        0.46      0.50      0.46      1.17         0.46
  YS02001644YS02001647        0.27      0.27      0.46      0.04         0.01
  YS02001647YS02001649        0.27      0.27      0.35      0.01         0.01
  YS02001649YS02001757        0.34      0.35      0.38      0.27         0.22
  YS02001652YS02001649        0.21      0.21      0.35      0.01         0.01
  YS02001655YS02001652        0.09      0.09      0.19      0.01         0.01
  YS02001658YS02001655        0.01      0.01      0.09      0.01         0.01
  YS02001661YS02001658        0.01      0.01      0.01      0.01         0.01
  YS02001748YS02001751        0.01      0.01      0.03      0.01         0.01
  YS02001751YS02001754        0.03      0.03      0.10      0.01         0.01
  YS02001754YS02001757        0.13      0.13      0.38      0.01         0.01
  YS02001757CaochengTiaoxuchi        0.30      0.38      1.00      0.25         0.12
  YS02001759YS02001757        0.29      0.29      0.38      0.01         0.01
  YS02001762YS02001759        0.26      0.26      0.29      0.01         0.02
  YS02001765YS02001762        0.23      0.23      0.26      0.01         0.01
  YS02001767YS02001765        0.20      0.21      0.23      0.01         0.01
  YS02001770YS02001767        0.21      0.21      0.21      0.33         0.17
  YS02001774YS02001770        0.19      0.19      0.25      0.01         0.01
  YS02001779YS02001774        0.12      0.12      0.25      0.01         0.01
  YS02001783YS02001784        0.29      0.31      0.29      0.43         0.29
  YS02001784YS02001785        0.20      0.29      0.20      0.61         0.20
  YS02001786YS02001788        0.01      0.20      0.01      0.52         0.01
  YS02001790YS02001791        0.01      0.01      0.01      0.28         0.01
  YS02001793JiankangQianchi        0.01      0.01      6.68      0.01         0.01
  YS02001882YS02001884        0.26      0.26      0.27      0.01         0.01
  YS02001884YS02001887        0.29      0.29      0.30      0.01         0.01
  YS02001887YS02001890        0.31      0.31      0.32      0.01         0.01
  YS02001890YS02001895        0.25      0.25      0.34      0.01         0.01
  YS02001895YS02001898        0.25      0.25      0.25      0.01         0.01
  YS02001898YS02001901        0.26      0.26      0.29      0.01         0.01
  YS02001901YS02001904        0.28      0.28      0.29      0.01         0.01
  YS02001904YS02001907        0.28      0.28      0.51      0.01         0.01
  YS02001907YS02006553        0.62      0.62      0.67      0.01         0.01
  YS02001910YS02001907        0.33      0.33      0.49      0.01         0.01
  YS02001915YS02001910        0.26      0.26      0.33      0.01         0.01
  YS02001918YS02001915        0.19      0.19      0.26      0.01         0.01
  YS02001920YS02001918        0.19      0.19      0.20      0.01         0.01
  YS02001923YS02001920        0.15      0.15      0.20      0.01         0.01
  YS02001926YS02001923        0.01      0.01      0.01      0.01         0.01
  YS02001929YS02001926        0.01      0.01      0.01      0.01         0.01
  YS02006553YS02006556        0.41      0.41      0.50      0.01         0.01
  YS02006556YS02006558        0.45      0.45      0.52      0.01         0.01
  YS02006558YS02006561        0.22      0.40      0.22      0.58         0.22
  YS02006561YS02001783        0.16      0.16      0.31      0.01         0.01
  YS02163301YS02001633        0.56      0.56      0.59      0.01         0.01
  YS02163601YS02164001        0.51      0.51      0.60      0.16         0.01
  YS02164001YS02001641        0.50      0.51      0.50      0.63         0.49
  YSB1154YSB6556              0.52      0.52      0.64      0.01         0.01
  YSB1171HS02004479           0.42      0.42      0.64      0.01         0.01
  YSB1174YSB1171              0.57      0.57      0.85      0.01         0.01
  YSB6556YSB1171              0.52      0.52      1.01      0.01         0.01
  
  
  ***************
  Pumping Summary
  ***************
  
  ---------------------------------------------------------------------------------------------------------
                                                  Min       Avg       Max     Total     Power    % Time Off
                        Percent   Number of      Flow      Flow      Flow    Volume     Usage    Pump Curve
  Pump                 Utilized   Start-Ups       LPS       LPS       LPS  10^6 ltr     Kw-hr    Low   High
  ---------------------------------------------------------------------------------------------------------
  CC-R1                   26.63          35      0.00    683.00    683.00     5.238     92.05    0.0   53.1
  CC-R2                    7.00          31      0.00    683.00    683.00     1.377     23.93    0.0   61.2
  CC-S1                   17.44          15      0.00    200.00    200.00     1.005      6.75    0.0    0.0
  CC-S2                   17.40          27      0.00    200.00    200.00     1.002      6.70    0.0    0.0
  JK-R1                    0.16           1      0.00   1000.00   1000.00     0.047      0.36    0.0    0.0
  JK-R2                    9.28          18      0.00   1000.00   1000.00     2.673     22.20    0.0    0.0
  JK-S                     3.06          32      0.00    300.00    300.00     0.264      5.15    0.0    0.0
  XR-1                    97.91           2      0.00     95.00     95.00     2.679      9.61    0.0    0.0
  XR-2                    93.94           2      0.00     95.00     95.00     2.570      8.77    0.0    0.0
  XR-3                     0.00           1      0.00     95.00     95.00     0.000      0.00    0.0    0.0
  XR-4                     0.00           1      0.00     95.00     95.00     0.000      0.00    0.0    0.0
  

  Analysis begun on:  Fri Jun 30 17:27:15 2023
  Analysis ended on:  Fri Jun 30 17:27:36 2023
  Total elapsed time: 00:00:21