
  OWA STORM WATER MANAGEMENT MODEL - VERSION v5.1.14 (OWA 2022-07-31)
  --------------------------------------------------------------

  WARNING 04: minimum elevation drop used for Conduit WS02004404WS02004405
  WARNING 03: negative offset ignored for Link YS02001904YS02001907
  
  *********************************************************
  NOTE: The summary statistics displayed in this report are
  based on results found at every computational time step,  
  not just on results from each reporting time step.
  *********************************************************
  
  ****************
  Analysis Options
  ****************
  Flow Units ............... LPS
  Process Models:
    Rainfall/Runoff ........ YES
    RDII ................... NO
    Snowmelt ............... NO
    Groundwater ............ NO
    Flow Routing ........... YES
    Ponding Allowed ........ NO
    Water Quality .......... NO
  Infiltration Method ...... HORTON
  Flow Routing Method ...... DYNWAVE
  Surcharge Method ......... EXTRAN
  Starting Date ............ 08/28/2015 08:00:00
  Ending Date .............. 08/28/2015 16:00:00
  Antecedent Dry Days ...... 8.0
  Report Time Step ......... 00:01:00
  Wet Time Step ............ 00:01:00
  Dry Time Step ............ 00:01:00
  Routing Time Step ........ 30.00 sec
  Variable Time Step ....... YES
  Maximum Trials ........... 8
  Number of Threads ........ 2
  Head Tolerance ........... 0.001500 m
  
  
  **************************        Volume         Depth
  Runoff Quantity Continuity     hectare-m            mm
  **************************     ---------       -------
  Initial LID Storage ......         0.072         1.184
  Total Precipitation ......         2.627        43.363
  Evaporation Loss .........         0.000         0.000
  Infiltration Loss ........         0.195         3.212
  Surface Runoff ...........         1.942        32.060
  Final Storage ............         0.564         9.303
  Continuity Error (%) .....        -0.061
  
  
  **************************        Volume        Volume
  Flow Routing Continuity        hectare-m      10^6 ltr
  **************************     ---------     ---------
  Dry Weather Inflow .......         0.630         6.296
  Wet Weather Inflow .......         1.942        19.420
  Groundwater Inflow .......         0.000         0.000
  RDII Inflow ..............         0.000         0.000
  External Inflow ..........         0.105         1.045
  External Outflow .........         2.022        20.216
  Flooding Loss ............         0.648         6.482
  Evaporation Loss .........         0.000         0.000
  Exfiltration Loss ........         0.000         0.000
  Initial Stored Volume ....         0.303         3.031
  Final Stored Volume ......         0.321         3.212
  Continuity Error (%) .....        -0.395
  
  
  *************************
  Highest Continuity Errors
  *************************
  Node YS02001583 (-5.85%)
  Node WS02006256 (-5.78%)
  Node YS02001884 (5.12%)
  Node HS02004842 (2.22%)
  Node YS02001774 (1.90%)
  
  
  ***************************
  Time-Step Critical Elements
  ***************************
  Link WS02006280WS02006229 (47.65%)
  Link WS02006252WS02006251 (19.82%)
  Link WS02006238WS02006235 (11.47%)
  Link WS02004404WS02004405 (5.37%)
  Link YS02001791YS02001793 (3.86%)
  
  
  ********************************
  Highest Flow Instability Indexes
  ********************************
  Link WS02006113WS02006111 (25)
  Link WS02006256WS02006235 (22)
  Link WS02006238WS02006235 (19)
  Link WS02006229WS02006228 (18)
  Link WS02006252WS02006251 (15)
  
  
  *************************
  Routing Time Step Summary
  *************************
  Minimum Time Step           :     0.01 sec
  Average Time Step           :     2.45 sec
  Maximum Time Step           :     6.46 sec
  Percent in Steady State     :    -0.00
  Average Iterations per Step :     3.40
  Percent Not Converging      :    13.80
  
  
  ***************************
  Subcatchment Runoff Summary
  ***************************
  
  ------------------------------------------------------------------------------------------------------------------------------
                            Total      Total      Total      Total     Imperv       Perv      Total       Total     Peak  Runoff
                           Precip      Runon       Evap      Infil     Runoff     Runoff     Runoff      Runoff   Runoff   Coeff
  Subcatchment                 mm         mm         mm         mm         mm         mm         mm    10^6 ltr      LPS
  ------------------------------------------------------------------------------------------------------------------------------
  sub0                      43.36       0.00       0.00       0.94      39.08       2.10      41.18        0.03    28.41   0.950
  sub1                      43.36       0.00       0.00       1.43      33.48       2.85      36.32        0.24   174.33   0.838
  sub10                     43.36       0.00       0.00       0.91      31.38       1.91      33.29        0.37   275.58   0.768
  sub11                     43.36       0.00       0.00       0.83      29.16       1.79      30.96        0.36   287.27   0.714
  sub12                     43.36       0.00       0.00       1.45      29.65       3.13      32.78        0.29   243.68   0.756
  sub14                     43.36       0.00       0.00       0.90      27.62       1.92      29.54        0.28   221.49   0.681
  sub15                     43.36       0.00       0.00       4.17      24.83       6.83      31.65        0.54   387.43   0.730
  sub16                     43.36       0.00       0.00       4.40      24.22       7.92      32.14        0.34   265.68   0.741
  sub17                     43.36       0.00       0.00       4.72      26.73       8.27      35.00        0.30   230.26   0.807
  sub2                      43.36       0.00       0.00       6.58      24.46       8.28      32.74        0.31   180.04   0.755
  sub22                     43.36       0.00       0.00       7.40      23.18      10.66      33.84        2.14  1424.69   0.780
  sub23                     43.36       0.00       0.00       5.56      23.87       8.92      32.79        1.56  1127.09   0.756
  sub3                      43.36       0.00       0.00       7.01      24.22       7.71      31.93        0.72   384.36   0.736
  sub4                      43.36       0.00       0.00       1.58      32.93       2.64      35.57        0.74   416.57   0.820
  sub5                      43.36       0.00       0.00       0.81      32.39       1.71      34.10        0.39   283.26   0.786
  sub60                     43.36       0.00       0.00       1.29      28.53       2.72      31.25        0.41   331.83   0.721
  sub61                     43.36       0.00       0.00       1.99      28.50       4.04      32.54        0.60   483.46   0.750
  sub62                     43.36       0.00       0.00       0.88      30.38       1.85      32.23        0.88   658.14   0.743
  sub63                     43.36       0.00       0.00       3.69      24.41       6.61      31.02        0.70   543.59   0.715
  sub64                     43.36       0.00       0.00       1.76      27.79       3.30      31.09        0.75   531.13   0.717
  sub65                     43.36       0.00       0.00       1.62      29.98       3.01      33.00        0.91   615.86   0.761
  sub66                     43.36       0.00       0.00       4.34      23.58       5.64      29.22        1.36   785.54   0.674
  sub67                     43.36       0.00       0.00       0.87      31.15       1.93      33.08        0.62   515.20   0.763
  sub68                     43.36       0.00       0.00       1.53      27.51       3.10      30.60        0.84   658.01   0.706
  sub69                     43.36       0.00       0.00       1.39      29.13       3.76      32.90        1.22   797.80   0.759
  sub7                      43.36       0.00       0.00       0.95      29.61       2.07      31.68        0.11    86.76   0.730
  sub70                     43.36       0.00       0.00       4.73      23.32       7.34      30.66        0.89   451.77   0.707
  sub71                     43.36       0.00       0.00       0.81      27.59       1.67      29.26        0.77   538.13   0.675
  sub72                     43.36       0.00       0.00       0.78      29.79       1.54      31.33        0.43   273.96   0.723
  sub8                      43.36       0.00       0.00       0.93      28.77       2.00      30.77        0.20   155.73   0.710
  sub9                      43.36       0.00       0.00       0.91      27.89       1.94      29.83        0.14   113.45   0.688
  

  ***********************
  LID Performance Summary
  ***********************

  --------------------------------------------------------------------------------------------------------------------
                                         Total      Evap     Infil   Surface    Drain    Initial     Final  Continuity
                                        Inflow      Loss      Loss   Outflow   Outflow   Storage   Storage       Error
  Subcatchment      LID Control             mm        mm        mm        mm        mm        mm        mm           %
  --------------------------------------------------------------------------------------------------------------------
  sub1              GreenRoof            43.36      0.00      0.00      0.00      0.00      7.05     50.52       -0.21
  sub10             GreenRoof            43.36      0.00      0.00      0.00      0.00      7.05     50.52       -0.21
  sub11             GreenRoof            43.36      0.00      0.00      0.00      0.00      7.05     50.52       -0.21
  sub12             GreenRoof            43.36      0.00      0.00      0.00      0.00      7.05     50.52       -0.21
  sub14             GreenRoof            43.36      0.00      0.00      0.00      0.00      7.05     50.52       -0.21
  sub15             GreenRoof            43.36      0.00      0.00      0.00      0.00      7.05     50.52       -0.21
  sub16             GreenRoof            43.36      0.00      0.00      0.00      0.00      7.05     50.52       -0.21
  sub17             GreenRoof            43.36      0.00      0.00      0.00      0.00      7.05     50.52       -0.21
  sub2              GreenRoof            43.36      0.00      0.00      0.00      0.00      7.05     50.52       -0.21
  sub22             GreenRoof            43.36      0.00      0.00      0.00      0.00      7.05     50.52       -0.21
  sub23             GreenRoof            43.36      0.00      0.00      0.00      0.00      7.05     50.52       -0.21
  sub3              GreenRoof            43.36      0.00      0.00      0.00      0.00      7.05     50.52       -0.21
  sub4              GreenRoof            43.36      0.00      0.00      0.00      0.00      7.05     50.52       -0.21
  sub5              GreenRoof            43.36      0.00      0.00      0.00      0.00      7.05     50.52       -0.21
  sub60             GreenRoof            43.36      0.00      0.00      0.00      0.00      7.05     50.52       -0.21
  sub61             GreenRoof            43.36      0.00      0.00      0.00      0.00      7.05     50.52       -0.21
  sub62             GreenRoof            43.36      0.00      0.00      0.00      0.00      7.05     50.52       -0.21
  sub63             GreenRoof            43.36      0.00      0.00      0.00      0.00      7.05     50.52       -0.21
  sub64             GreenRoof            43.36      0.00      0.00      0.00      0.00      7.05     50.52       -0.21
  sub65             GreenRoof            43.36      0.00      0.00      0.00      0.00      7.05     50.52       -0.21
  sub66             GreenRoof            43.36      0.00      0.00      0.00      0.00      7.05     50.52       -0.21
  sub67             GreenRoof            43.36      0.00      0.00      0.00      0.00      7.05     50.52       -0.21
  sub68             GreenRoof            43.36      0.00      0.00      0.00      0.00      7.05     50.52       -0.21
  sub69             GreenRoof            43.36      0.00      0.00      0.00      0.00      7.05     50.52       -0.21
  sub7              GreenRoof            43.36      0.00      0.00      0.00      0.00      7.05     50.52       -0.21
  sub70             GreenRoof            43.36      0.00      0.00      0.00      0.00      7.05     50.52       -0.21
  sub71             GreenRoof            43.36      0.00      0.00      0.00      0.00      7.05     50.52       -0.21
  sub72             GreenRoof            43.36      0.00      0.00      0.00      0.00      7.05     50.52       -0.21
  sub8              GreenRoof            43.36      0.00      0.00      0.00      0.00      7.05     50.52       -0.21
  sub9              GreenRoof            43.36      0.00      0.00      0.00      0.00      7.05     50.52       -0.21
  
  ******************
  Node Depth Summary
  ******************
  
  ---------------------------------------------------------------------------------
                                 Average  Maximum  Maximum  Time of Max    Reported
                                   Depth    Depth      HGL   Occurrence   Max Depth
  Node                 Type       Meters   Meters   Meters  days hr:min      Meters
  ---------------------------------------------------------------------------------
  HS02004478           JUNCTION     0.18     1.60    10.83     0  02:23        1.54
  HS02004479           JUNCTION     0.26     1.71    10.92     0  02:23        1.69
  HS02004480           JUNCTION     0.23     1.69    10.94     0  02:23        1.66
  HS02004770           JUNCTION     0.24     1.42    11.25     0  02:20        1.42
  HS02004777           JUNCTION     0.26     1.48    11.28     0  02:20        1.44
  HS02004785           JUNCTION     0.16     1.49    11.39     0  02:20        1.33
  HS02004788           JUNCTION     0.12     1.42    11.32     0  02:20        1.32
  HS02004792           JUNCTION     0.17     1.60    11.12     0  02:20        1.60
  HS02004799           JUNCTION     0.29     1.76    10.97     0  02:23        1.76
  HS02004802           JUNCTION     0.28     1.81    10.94     0  02:23        1.70
  HS02004807           JUNCTION     0.25     1.92    11.09     0  02:23        1.75
  HS02004817           JUNCTION     0.55     2.44    11.29     0  02:23        2.11
  HS02004824           JUNCTION     0.12     2.01    11.41     0  02:23        1.62
  HS02004830           JUNCTION     0.12     2.03    11.50     0  02:23        1.56
  HS02004837           JUNCTION     0.10     2.02    11.60     0  02:23        1.48
  HS02004842           JUNCTION     0.39     2.22    11.49     0  02:23        1.79
  HS02004848           JUNCTION     0.08     2.06    11.66     0  02:23        1.48
  HS02004852           JUNCTION     0.08     2.12    11.63     0  02:23        1.52
  HS02004856           JUNCTION     0.14     2.07    11.50     0  02:23        1.57
  HS02004862           JUNCTION     0.10     2.00    11.38     0  02:23        1.56
  HS02004870           JUNCTION     0.09     2.06    11.35     0  02:23        1.56
  HS02004876           JUNCTION     0.14     1.96    10.99     0  02:23        1.67
  HS02004881           JUNCTION     0.08     2.15    11.18     0  02:23        1.48
  HS02004901           JUNCTION     0.24     1.42    11.24     0  02:20        1.42
  WS02001211           JUNCTION     0.63     0.80     5.64     0  02:28        0.80
  WS02001212           JUNCTION     0.37     0.56     5.63     0  02:29        0.56
  WS02001213           JUNCTION     0.59     0.86     5.62     0  02:27        0.86
  WS02003059           JUNCTION     0.65     0.93     5.62     0  02:27        0.93
  WS02003060           JUNCTION     0.37     0.68     5.61     0  02:27        0.68
  WS02003066           JUNCTION     0.22     0.45     6.00     0  02:25        0.45
  WS02003067           JUNCTION     0.53     0.88     6.20     0  02:25        0.88
  WS02003069           JUNCTION     0.41     0.77     5.35     0  02:28        0.77
  WS02003072           JUNCTION     0.48     0.80     5.17     0  02:28        0.80
  WS02003073           JUNCTION     0.28     0.51     4.57     0  02:29        0.51
  WS02004138           JUNCTION     0.13     0.14     7.39     0  00:29        0.14
  WS02004139           JUNCTION     0.57     0.74     5.65     0  02:28        0.74
  WS02004401           JUNCTION     0.72     1.81     7.81     0  02:24        1.81
  WS02004402           JUNCTION     0.74     1.74     7.70     0  02:24        1.74
  WS02004403           JUNCTION     0.75     1.68     7.61     0  02:25        1.67
  WS02004404           JUNCTION     0.81     1.68     7.53     0  02:26        1.68
  WS02004405           JUNCTION     0.81     1.64     7.49     0  02:25        1.63
  WS02004406           JUNCTION     0.80     1.53     7.36     0  02:24        1.53
  WS02004407           JUNCTION     0.24     0.89     7.20     0  02:25        0.88
  WS02004409           JUNCTION     0.49     1.36     7.13     0  02:25        1.35
  WS02004410           JUNCTION     0.51     1.28     7.00     0  02:25        1.27
  WS02004411           JUNCTION     0.51     1.19     6.87     0  02:25        1.18
  WS02004412           JUNCTION     0.52     1.09     6.73     0  02:25        1.09
  WS02004413           JUNCTION     0.66     1.14     6.61     0  02:27        1.14
  WS02006109           JUNCTION     0.89     2.64     9.26     0  02:20        2.64
  WS02006110           JUNCTION     0.84     2.37     8.95     0  02:25        2.37
  WS02006111           JUNCTION     0.36     1.68     8.39     0  02:25        1.68
  WS02006112           JUNCTION     0.92     2.31     8.20     0  02:24        2.31
  WS02006113           JUNCTION     0.43     1.79     8.68     0  02:25        1.78
  WS02006115           JUNCTION     0.63     1.90     8.04     0  02:24        1.90
  WS02006116           JUNCTION     0.71     1.89     7.93     0  02:24        1.89
  WS02006228           JUNCTION     0.93     3.03     9.68     0  02:23        3.03
  WS02006229           JUNCTION     0.92     3.23     9.93     0  02:23        3.21
  WS02006230           JUNCTION     0.86     2.65     9.39     0  02:15        2.65
  WS02006231           JUNCTION     0.60     2.24     9.36     0  02:15        2.24
  WS02006232           JUNCTION     0.69     2.18     9.22     0  02:15        2.18
  WS02006234           JUNCTION     0.58     1.96     9.12     0  02:15        1.96
  WS02006235           JUNCTION     0.59     2.00     9.16     0  02:15        2.00
  WS02006238           JUNCTION     0.61     2.15     9.29     0  02:15        2.15
  WS02006239           JUNCTION     0.55     2.03     9.24     0  02:15        2.03
  WS02006240           JUNCTION     0.50     1.92     9.22     0  02:15        1.92
  WS02006242           JUNCTION     0.54     1.55     8.82     0  02:14        1.55
  WS02006243           JUNCTION     0.44     1.41     8.83     0  03:10        1.37
  WS02006245           JUNCTION     0.43     1.32     8.80     0  03:10        1.26
  WS02006247           JUNCTION     0.44     1.26     8.76     0  03:15        1.23
  WS02006248           JUNCTION     0.39     1.10     8.69     0  02:10        1.10
  WS02006249           JUNCTION     0.41     1.09     8.69     0  02:10        1.09
  WS02006251           JUNCTION     0.48     2.21     9.88     0  02:23        2.09
  WS02006252           JUNCTION     0.31     1.50     9.74     0  00:00        1.50
  WS02006253           JUNCTION     0.53     3.24    10.88     0  02:23        2.78
  WS02006256           JUNCTION     0.91     2.35     9.28     0  00:00        2.35
  WS02006280           JUNCTION     0.24     1.75    10.02     0  02:23        1.70
  WS02006284           JUNCTION     0.51     1.96    10.36     0  02:23        1.90
  WS02006287           JUNCTION     0.25     1.76    10.71     0  02:23        1.69
  WSF200               JUNCTION     0.21     0.51     5.75     0  02:26        0.51
  YS02001580           JUNCTION     0.05     1.05     9.59     0  02:20        0.77
  YS02001583           JUNCTION     0.08     1.03     9.53     0  02:20        0.81
  YS02001586           JUNCTION     0.14     1.13     9.30     0  02:20        1.13
  YS02001590           JUNCTION     0.23     1.40     9.26     0  02:20        1.38
  YS02001593           JUNCTION     0.16     1.34     9.20     0  02:20        1.28
  YS02001596           JUNCTION     0.22     1.68     9.10     0  02:20        1.65
  YS02001600           JUNCTION     0.27     1.87     9.00     0  02:20        1.86
  YS02001601           JUNCTION     0.47     2.06     8.90     0  02:18        2.06
  YS02001602           JUNCTION     0.39     1.87     8.77     0  02:20        1.87
  YS02001605           JUNCTION     0.36     1.78     8.68     0  02:24        1.78
  YS02001607           JUNCTION     0.36     1.65     8.50     0  02:27        1.65
  YS02001610           JUNCTION     0.41     1.68     8.48     0  02:20        1.68
  YS02001613           JUNCTION     0.36     1.65     8.50     0  02:24        1.65
  YS02001616           JUNCTION     0.29     1.61     8.52     0  02:24        1.61
  YS02001619           JUNCTION     0.27     1.60     8.53     0  02:24        1.60
  YS02001622           JUNCTION     0.26     1.57     8.48     0  02:20        1.57
  YS02001625           JUNCTION     0.52     1.78     8.38     0  02:23        1.78
  YS02001629           JUNCTION     0.37     1.85     8.40     0  02:20        1.85
  YS02001633           JUNCTION     0.45     2.00     8.46     0  02:25        1.95
  YS02001641           JUNCTION     0.43     1.95     8.39     0  02:25        1.85
  YS02001644           JUNCTION     0.43     1.92     8.35     0  02:25        1.83
  YS02001647           JUNCTION     0.21     1.68     8.29     0  02:25        1.54
  YS02001649           JUNCTION     0.24     1.81     8.20     0  02:25        1.65
  YS02001652           JUNCTION     0.13     1.67     8.27     0  02:25        1.46
  YS02001655           JUNCTION     0.09     1.60     8.45     0  02:25        1.23
  YS02001658           JUNCTION     0.07     1.50     8.64     0  02:25        0.96
  YS02001661           JUNCTION     0.12     0.76     8.16     0  02:26        0.71
  YS02001664           JUNCTION     0.05     0.28     8.21     0  02:25        0.28
  YS02001745           JUNCTION     0.04     0.50     8.01     0  02:25        0.49
  YS02001748           JUNCTION     0.06     0.95     8.03     0  02:26        0.83
  YS02001751           JUNCTION     0.07     1.41     8.29     0  02:25        1.00
  YS02001754           JUNCTION     0.10     1.53     8.13     0  02:25        1.27
  YS02001757           JUNCTION     0.24     1.73     7.99     0  02:26        1.62
  YS02001759           JUNCTION     0.18     1.69     8.05     0  02:26        1.61
  YS02001762           JUNCTION     0.18     1.69     8.09     0  02:26        1.61
  YS02001765           JUNCTION     0.16     1.66     8.11     0  02:26        1.59
  YS02001767           JUNCTION     0.16     1.68     8.17     0  02:24        1.59
  YS02001770           JUNCTION     0.18     1.85     8.35     0  02:24        1.64
  YS02001774           JUNCTION     0.24     1.94     8.36     0  02:24        1.71
  YS02001779           JUNCTION     0.08     1.68     8.37     0  02:24        1.45
  YS02001783           JUNCTION     0.19     1.30     7.44     0  02:23        1.22
  YS02001784           JUNCTION     0.21     1.18     7.25     0  02:23        1.09
  YS02001786           JUNCTION     0.18     0.91     6.94     0  02:23        0.88
  YS02001788           JUNCTION     0.13     0.62     6.60     0  02:24        0.62
  YS02001790           JUNCTION     0.16     0.72     6.36     0  02:25        0.72
  YS02001791           JUNCTION     0.10     0.43     5.90     0  02:30        0.43
  YS02001793           JUNCTION     0.05     0.25     5.09     0  02:24        0.25
  YS02001882           JUNCTION     0.24     1.83     8.55     0  02:23        1.81
  YS02001884           JUNCTION     0.33     1.91     8.53     0  02:23        1.88
  YS02001887           JUNCTION     0.41     1.92     8.46     0  02:23        1.90
  YS02001890           JUNCTION     0.44     1.81     8.32     0  02:23        1.81
  YS02001895           JUNCTION     0.22     1.61     8.36     0  02:23        1.60
  YS02001898           JUNCTION     0.22     1.63     8.37     0  02:24        1.63
  YS02001901           JUNCTION     0.33     1.74     8.35     0  02:24        1.74
  YS02001904           JUNCTION     0.31     1.69     8.32     0  02:24        1.69
  YS02001907           JUNCTION     0.63     1.96     8.25     0  02:23        1.96
  YS02001910           JUNCTION     0.43     1.97     8.47     0  02:24        1.83
  YS02001915           JUNCTION     0.24     1.91     8.63     0  02:24        1.69
  YS02001918           JUNCTION     0.11     1.81     8.88     0  02:24        1.40
  YS02001920           JUNCTION     0.19     2.14     9.15     0  02:24        1.48
  YS02001923           JUNCTION     0.08     2.03     9.29     0  02:24        1.24
  YS02001926           JUNCTION     0.12     1.90     9.35     0  02:24        1.09
  YS02001929           JUNCTION     0.06     1.78     9.47     0  02:24        0.90
  YS02006553           JUNCTION     0.63     1.99     8.27     0  02:23        1.96
  YS02006556           JUNCTION     0.61     1.99     8.30     0  02:23        1.92
  YS02006558           JUNCTION     0.65     2.04     8.30     0  02:23        1.96
  YS02006561           JUNCTION     0.12     0.97     7.63     0  02:23        0.92
  YS02163301           JUNCTION     0.39     1.91     8.43     0  02:25        1.88
  YS02163601           JUNCTION     0.49     2.03     8.43     0  02:25        1.95
  YS02164001           JUNCTION     0.42     1.95     8.41     0  02:25        1.86
  YSB1154              JUNCTION     0.39     1.89    10.95     0  02:24        1.89
  YSB1171              JUNCTION     0.54     1.95    10.85     0  02:23        1.95
  YSB1174              JUNCTION     0.35     1.80    10.91     0  02:24        1.80
  YSB6556              JUNCTION     0.29     1.72    10.89     0  02:23        1.72
  CC-1                 OUTFALL      0.00     0.00     0.00     0  00:00        0.00
  CC-2                 OUTFALL      0.00     0.00     0.00     0  00:00        0.00
  JK-1                 OUTFALL      0.00     0.00     0.00     0  00:00        0.00
  JK-2                 OUTFALL      0.00     0.00     0.00     0  00:00        0.00
  WSC                  OUTFALL      0.28     0.51     1.18     0  02:29        0.51
  CC-storage           STORAGE      0.64     1.36     6.86     0  02:45        1.36
  JK-storage           STORAGE      1.36     4.21     5.01     0  02:23        4.16
  XR-storage           STORAGE      7.87     9.26     7.26     0  08:00        9.26
  
  
  *******************
  Node Inflow Summary
  *******************
  
  -------------------------------------------------------------------------------------------------
                                  Maximum  Maximum                  Lateral       Total        Flow
                                  Lateral    Total  Time of Max      Inflow      Inflow     Balance
                                   Inflow   Inflow   Occurrence      Volume      Volume       Error
  Node                 Type           LPS      LPS  days hr:min    10^6 ltr    10^6 ltr     Percent
  -------------------------------------------------------------------------------------------------
  HS02004478           JUNCTION      0.00  2248.65     0  02:25           0           6      -0.009
  HS02004479           JUNCTION      0.00   459.18     0  02:23           0       0.607       0.142
  HS02004480           JUNCTION      0.00  2119.00     0  02:21           0        4.65       0.062
  HS02004770           JUNCTION   1127.09  1127.09     0  02:25        1.56        1.75       0.180
  HS02004777           JUNCTION      0.03   752.73     0  02:20    0.000864         1.4       0.376
  HS02004785           JUNCTION      0.15   771.75     0  02:20     0.00432         1.4       0.039
  HS02004788           JUNCTION    389.10   861.19     0  02:20       0.593        1.99      -0.007
  HS02004792           JUNCTION   1424.97  2153.70     0  02:25        2.15        4.13       0.007
  HS02004799           JUNCTION    221.49  1776.52     0  02:21       0.281        4.06       0.063
  HS02004802           JUNCTION      0.00   743.71     0  02:25           0        1.38       0.286
  HS02004807           JUNCTION    287.27   743.55     0  02:25        0.36        1.43       0.290
  HS02004817           JUNCTION      0.60   469.86     0  02:25      0.0173        1.12       1.483
  HS02004824           JUNCTION    416.62   654.21     0  02:21       0.743        1.26       0.051
  HS02004830           JUNCTION      0.15   660.10     0  02:20     0.00432       0.663       0.204
  HS02004837           JUNCTION    281.93   840.67     0  02:21        0.55       0.892       0.093
  HS02004842           JUNCTION      0.00   836.65     0  02:21           0       0.577       2.268
  HS02004848           JUNCTION    384.36  1087.67     0  02:22       0.719        1.15      -0.017
  HS02004852           JUNCTION      0.00  1083.89     0  02:23           0        1.01       0.009
  HS02004856           JUNCTION    113.45  1185.36     0  02:23       0.143        1.15       0.037
  HS02004862           JUNCTION    180.24  1277.32     0  02:23       0.311        1.46      -0.029
  HS02004870           JUNCTION    155.73  1351.32     0  02:23       0.197        1.66       0.011
  HS02004876           JUNCTION    174.33  1399.70     0  02:23       0.242         1.9       0.026
  HS02004881           JUNCTION     86.76  1455.80     0  02:23       0.107        2.01       0.016
  HS02004901           JUNCTION    265.68   480.95     0  02:26       0.336        0.47       0.393
  WS02001211           JUNCTION      7.35   204.49     0  03:18       0.212        5.44       0.613
  WS02001212           JUNCTION      0.00   210.54     0  02:49           0        5.41       0.290
  WS02001213           JUNCTION      0.00   215.32     0  02:48           0        5.39       0.333
  WS02003059           JUNCTION      0.00   219.75     0  02:53           0        5.38       0.597
  WS02003060           JUNCTION     16.53  1476.46     0  02:27       0.476        12.3       0.121
  WS02003066           JUNCTION      0.00  1277.82     0  02:25           0        6.47       0.025
  WS02003067           JUNCTION      0.00  1277.24     0  02:26           0        6.48       0.069
  WS02003069           JUNCTION      0.32  1476.26     0  02:27     0.00922        12.3       0.128
  WS02003072           JUNCTION      0.00  1476.06     0  02:28           0        12.3       0.172
  WS02003073           JUNCTION      1.82  1477.96     0  02:28      0.0524        12.3       0.179
  WS02004138           JUNCTION      0.00   380.00     0  00:00           0        5.25       0.054
  WS02004139           JUNCTION      0.32   190.34     0  00:29     0.00924        5.26       0.508
  WS02004401           JUNCTION      0.00  1279.28     0  02:25           0        6.59       0.165
  WS02004402           JUNCTION      0.00  1279.07     0  02:25           0        6.57       0.167
  WS02004403           JUNCTION      0.00  1279.22     0  02:25           0        6.56       0.162
  WS02004404           JUNCTION      0.16  1280.35     0  02:25     0.00467        6.56       0.138
  WS02004405           JUNCTION      0.04  1279.47     0  02:25      0.0011        6.55       0.197
  WS02004406           JUNCTION      0.00  1279.71     0  02:25           0        6.54       0.331
  WS02004407           JUNCTION      0.00  1279.47     0  02:25           0        6.52       0.025
  WS02004409           JUNCTION      0.00  1277.23     0  02:25           0        6.51       0.048
  WS02004410           JUNCTION      0.00  1277.56     0  02:26           0        6.51       0.079
  WS02004411           JUNCTION      0.00  1277.14     0  02:26           0        6.51       0.099
  WS02004412           JUNCTION      0.00  1277.31     0  02:26           0         6.5       0.128
  WS02004413           JUNCTION      0.00  1277.24     0  02:26           0        6.49       0.223
  WS02006109           JUNCTION      1.23  1261.81     0  02:25      0.0354        6.43       0.162
  WS02006110           JUNCTION      0.00  1118.59     0  02:33           0        6.33       0.125
  WS02006111           JUNCTION      0.00  1118.78     0  02:33           0        6.32       0.016
  WS02006112           JUNCTION    230.26  1278.56     0  02:25         0.3        6.62       0.281
  WS02006113           JUNCTION      0.00  1118.60     0  02:33           0        6.32       0.031
  WS02006115           JUNCTION      0.00  1278.58     0  02:24           0         6.6       0.104
  WS02006116           JUNCTION      0.00  1278.45     0  02:25           0        6.59       0.089
  WS02006228           JUNCTION      0.00  1260.42     0  02:25           0         6.4       0.076
  WS02006229           JUNCTION      0.00  2249.77     0  02:25           0        7.72       0.097
  WS02006230           JUNCTION     10.28   999.03     0  02:25       0.296        3.09       0.287
  WS02006231           JUNCTION      0.00   459.53     0  03:10           0        2.33      -0.094
  WS02006232           JUNCTION      0.00   459.40     0  03:10           0        2.34       0.296
  WS02006234           JUNCTION      0.00   459.49     0  03:10           0        2.32      -0.598
  WS02006235           JUNCTION      0.00   461.58     0  03:35           0        2.42       0.681
  WS02006238           JUNCTION      0.00   415.86     0  02:23           0        2.18      -0.309
  WS02006239           JUNCTION      0.00   415.40     0  02:23           0         2.1      -0.271
  WS02006240           JUNCTION      0.00   415.42     0  02:24           0        2.06       0.000
  WS02006242           JUNCTION      0.00   415.67     0  02:24           0        2.05       0.009
  WS02006243           JUNCTION      0.00   402.10     0  03:17           0        1.82      -0.398
  WS02006245           JUNCTION      0.00   403.11     0  03:17           0        1.83       0.822
  WS02006247           JUNCTION      0.00   404.03     0  03:17           0        1.83      -0.088
  WS02006248           JUNCTION      0.00   405.28     0  03:17           0        1.99      -0.212
  WS02006249           JUNCTION      0.00  1328.13     0  02:23           0        3.85       0.278
  WS02006251           JUNCTION      0.08  1489.56     0  02:23     0.00222        3.92      -0.038
  WS02006252           JUNCTION      0.00   400.00     0  00:00           0        1.88      -0.682
  WS02006253           JUNCTION     28.41  1486.33     0  02:23      0.0334         2.1       0.001
  WS02006256           JUNCTION      0.00   300.00     0  00:00           0       0.626      -5.463
  WS02006280           JUNCTION      0.00  2248.60     0  02:25           0        5.98       0.002
  WS02006284           JUNCTION      0.10  2249.95     0  02:25     0.00275        5.98       0.007
  WS02006287           JUNCTION      0.00  2250.75     0  02:25           0        5.98       0.014
  WSF200               JUNCTION      0.00  1278.01     0  02:25           0        6.47       0.013
  YS02001580           JUNCTION      0.00   113.61     0  02:20           0     0.00397      -5.801
  YS02001583           JUNCTION      0.00   175.69     0  02:20           0      0.0147      -5.530
  YS02001586           JUNCTION    451.77   451.77     0  02:26       0.886       0.897       0.147
  YS02001590           JUNCTION      0.00   318.03     0  02:28           0       0.832      -0.053
  YS02001593           JUNCTION      0.00   318.07     0  02:25           0       0.833       0.019
  YS02001596           JUNCTION      0.00   317.99     0  02:25           0       0.832      -0.004
  YS02001600           JUNCTION      0.00   318.11     0  02:26           0       0.832       0.012
  YS02001601           JUNCTION    797.80  1115.41     0  02:25        1.22        2.05       0.041
  YS02001602           JUNCTION      0.00   516.78     0  02:20           0        1.59       0.018
  YS02001605           JUNCTION      0.00   516.64     0  02:20           0        1.54       0.013
  YS02001607           JUNCTION      0.00   516.48     0  02:20           0        1.54       0.118
  YS02001610           JUNCTION      0.00   515.11     0  02:20           0        1.54       0.141
  YS02001613           JUNCTION      0.00   515.42     0  02:19           0        1.43       0.103
  YS02001616           JUNCTION      0.00   518.86     0  02:19           0        1.43       0.027
  YS02001619           JUNCTION    785.54   940.53     0  02:22        1.36        2.79      -0.003
  YS02001622           JUNCTION      0.00   949.40     0  02:20           0        2.79       0.003
  YS02001625           JUNCTION      0.00   958.23     0  02:20           0        2.79       0.318
  YS02001629           JUNCTION      0.00   961.20     0  02:20           0        2.62       0.023
  YS02001633           JUNCTION    616.06  1424.66     0  02:23       0.914        3.53       0.098
  YS02001641           JUNCTION      0.00  1417.23     0  02:23           0        3.53       0.081
  YS02001644           JUNCTION    531.16  1848.75     0  02:23       0.748        4.27       0.078
  YS02001647           JUNCTION      0.00  1851.52     0  02:23           0        4.27       0.008
  YS02001649           JUNCTION      0.00  2148.51     0  02:23           0        4.97       0.009
  YS02001652           JUNCTION      0.00   599.43     0  02:27           0       0.709      -0.107
  YS02001655           JUNCTION      0.15   600.87     0  02:27     0.00443       0.709       0.034
  YS02001658           JUNCTION      0.00   708.32     0  02:25           0       0.704      -0.103
  YS02001661           JUNCTION      0.00   543.20     0  02:25           0       0.704       0.042
  YS02001664           JUNCTION    543.59   543.59     0  02:25       0.704       0.704      -0.006
  YS02001745           JUNCTION    331.83   331.83     0  02:25       0.411       0.411       0.333
  YS02001748           JUNCTION      0.04   487.15     0  02:26      0.0013       0.411      -0.418
  YS02001751           JUNCTION      0.01   432.47     0  02:27    0.000317       0.417       0.129
  YS02001754           JUNCTION      0.26   388.06     0  02:27     0.00749       0.427      -0.296
  YS02001757           JUNCTION      0.00  3274.72     0  02:26           0         6.9       0.095
  YS02001759           JUNCTION    483.50  1201.55     0  02:24       0.598         1.5      -0.003
  YS02001762           JUNCTION      0.00   719.00     0  02:24           0       0.901       0.009
  YS02001765           JUNCTION      0.00   708.06     0  02:24           0       0.901       0.011
  YS02001767           JUNCTION      0.54   698.91     0  02:24      0.0154       0.901      -0.016
  YS02001770           JUNCTION    658.29   688.66     0  02:24       0.887       0.928       0.022
  YS02001774           JUNCTION      0.00   305.29     0  02:24           0      0.0595       1.936
  YS02001779           JUNCTION      0.01   304.10     0  02:24    0.000144      0.0179      -3.787
  YS02001783           JUNCTION      0.00  1151.57     0  02:25           0        2.51       0.010
  YS02001784           JUNCTION      1.06  1152.95     0  02:25      0.0305        2.54       0.020
  YS02001786           JUNCTION      0.06  1152.87     0  02:25     0.00162        2.54       0.024
  YS02001788           JUNCTION      0.07  1153.37     0  02:25     0.00204        2.54       0.011
  YS02001790           JUNCTION      0.15  1161.34     0  02:26     0.00446        2.55       0.028
  YS02001791           JUNCTION      0.00  1266.87     0  02:26           0        2.55      -0.016
  YS02001793           JUNCTION      0.00  1223.92     0  02:26           0        2.55       0.008
  YS02001882           JUNCTION      0.00    61.62     0  02:22           0      0.0123       5.471
  YS02001884           JUNCTION      0.00    81.53     0  02:22           0      0.0481       5.401
  YS02001887           JUNCTION    515.65   516.13     0  02:25       0.628       0.662       0.696
  YS02001890           JUNCTION      0.00   515.20     0  02:25           0       0.621       0.843
  YS02001895           JUNCTION      0.00   492.95     0  02:25           0       0.611       0.230
  YS02001898           JUNCTION      0.00   492.85     0  02:25           0        0.61       0.063
  YS02001901           JUNCTION      0.00   493.77     0  02:25           0       0.612       0.526
  YS02001904           JUNCTION      0.00   493.38     0  02:23           0       0.615       0.477
  YS02001907           JUNCTION      0.00  1488.14     0  02:25           0        1.88       0.966
  YS02001910           JUNCTION      0.00   999.73     0  02:25           0        1.28       0.559
  YS02001915           JUNCTION    538.15   998.45     0  02:25       0.766        1.32       0.118
  YS02001918           JUNCTION      0.00   461.24     0  02:25           0       0.581       0.023
  YS02001920           JUNCTION      2.87   460.24     0  02:25      0.0827       0.564       0.176
  YS02001923           JUNCTION      0.04   419.84     0  02:25     0.00109       0.465      -0.303
  YS02001926           JUNCTION      0.05   667.58     0  02:24      0.0015       0.447      -0.011
  YS02001929           JUNCTION    273.96   492.18     0  02:24       0.431       0.434      -0.099
  YS02006553           JUNCTION      0.00   795.73     0  02:33           0        1.69       0.711
  YS02006556           JUNCTION      0.00   795.41     0  02:33           0        1.69       0.496
  YS02006558           JUNCTION    658.89  1159.50     0  02:23       0.868        2.54       0.138
  YS02006561           JUNCTION      0.00  1157.49     0  02:23           0        2.51      -0.001
  YS02163301           JUNCTION      0.00   938.25     0  02:22           0        2.62       0.063
  YS02163601           JUNCTION      0.11  1422.92     0  02:23     0.00317        3.53       0.139
  YS02164001           JUNCTION      0.00  1421.04     0  02:23           0        3.53       0.071
  YSB1154              JUNCTION    283.26   283.26     0  02:25       0.386       0.387       0.383
  YSB1171              JUNCTION      0.00   527.37     0  02:25           0       0.681       0.957
  YSB1174              JUNCTION    243.68   243.68     0  02:25       0.286       0.287       0.443
  YSB6556              JUNCTION      0.00   283.47     0  02:25           0       0.388       0.316
  CC-1                 OUTFALL       0.00   683.00     0  00:00           0        2.89       0.000
  CC-2                 OUTFALL       0.00   683.00     0  00:00           0           3       0.000
  JK-1                 OUTFALL       0.00  1000.00     0  00:00           0         1.3       0.000
  JK-2                 OUTFALL       0.00  1000.00     0  00:00           0       0.752       0.000
  WSC                  OUTFALL       0.00  1478.32     0  02:29           0        12.3       0.000
  CC-storage           STORAGE       0.00  3275.92     0  02:26           0        9.12      -0.339
  JK-storage           STORAGE       0.00  1233.49     0  02:30           0         2.7      -0.639
  XR-storage           STORAGE     200.00   200.00     0  00:00        5.76        6.36       0.001
  
  
  **********************
  Node Surcharge Summary
  **********************
  
  Surcharging occurs when water rises above the top of the highest conduit.
  ---------------------------------------------------------------------
                                               Max. Height   Min. Depth
                                   Hours       Above Crown    Below Rim
  Node                 Type      Surcharged         Meters       Meters
  ---------------------------------------------------------------------
  HS02004478           JUNCTION        0.25          0.678        0.262
  HS02004479           JUNCTION        0.36          0.911        0.139
  HS02004480           JUNCTION        0.39          0.985        0.115
  HS02004770           JUNCTION        0.31          0.720        0.000
  HS02004777           JUNCTION        0.32          0.780        0.000
  HS02004785           JUNCTION        0.28          0.790        0.000
  HS02004788           JUNCTION        0.26          0.720        0.000
  HS02004792           JUNCTION        0.36          0.900        0.000
  HS02004799           JUNCTION        0.46          1.060        0.000
  HS02004802           JUNCTION        0.39          1.099        0.111
  HS02004807           JUNCTION        0.38          1.220        0.000
  HS02004817           JUNCTION        0.80          1.740        0.000
  HS02004824           JUNCTION        0.27          1.310        0.000
  HS02004830           JUNCTION        0.25          1.330        0.000
  HS02004837           JUNCTION        0.21          1.320        0.020
  HS02004842           JUNCTION        0.32          1.520        0.000
  HS02004848           JUNCTION        0.18          1.361        0.009
  HS02004852           JUNCTION        0.20          1.420        0.000
  HS02004856           JUNCTION        0.19          1.300        0.000
  HS02004862           JUNCTION        0.22          1.300        0.000
  HS02004870           JUNCTION        0.23          1.360        0.040
  HS02004876           JUNCTION        0.29          1.256        0.304
  HS02004881           JUNCTION        0.27          1.450        0.000
  HS02004901           JUNCTION        0.32          0.720        0.000
  WS02004401           JUNCTION        1.11          0.806        0.854
  WS02004402           JUNCTION        1.12          0.743        0.997
  WS02004403           JUNCTION        1.13          0.678        1.352
  WS02004404           JUNCTION        1.27          0.684        2.096
  WS02004405           JUNCTION        1.20          0.637        2.163
  WS02004406           JUNCTION        1.17          0.531        1.919
  WS02004409           JUNCTION        0.64          0.361        1.999
  WS02004410           JUNCTION        0.62          0.275        2.265
  WS02004411           JUNCTION        0.56          0.187        2.343
  WS02004412           JUNCTION        0.48          0.092        2.218
  WS02004413           JUNCTION        0.82          0.137        2.063
  WS02006109           JUNCTION        1.63          1.820        0.000
  WS02006110           JUNCTION        1.38          1.459        0.391
  WS02006111           JUNCTION        0.80          0.869        1.001
  WS02006112           JUNCTION        1.50          1.313        0.367
  WS02006113           JUNCTION        0.81          0.986        0.944
  WS02006115           JUNCTION        0.99          0.894        1.356
  WS02006116           JUNCTION        1.01          0.831        1.459
  WS02006228           JUNCTION        1.62          2.200        0.000
  WS02006229           JUNCTION        0.60          1.051        0.019
  WS02006230           JUNCTION        1.23          1.570        0.000
  WS02006231           JUNCTION        1.27          1.530        0.000
  WS02006232           JUNCTION        1.42          1.480        0.000
  WS02006234           JUNCTION        1.32          1.240        0.000
  WS02006235           JUNCTION        1.34          1.290        0.000
  WS02006238           JUNCTION        1.36          1.430        0.000
  WS02006239           JUNCTION        1.32          1.290        0.000
  WS02006240           JUNCTION        1.29          1.213        0.177
  WS02006242           JUNCTION        1.33          0.820        0.000
  WS02006243           JUNCTION        1.21          0.703        0.067
  WS02006245           JUNCTION        1.17          0.608        0.242
  WS02006247           JUNCTION        1.18          0.554        0.206
  WS02006248           JUNCTION        1.14          0.380        0.000
  WS02006249           JUNCTION        1.15          0.390        0.000
  WS02006251           JUNCTION        1.03          1.180        0.000
  WS02006252           JUNCTION        1.31          1.100        0.000
  WS02006253           JUNCTION        1.04          2.201        0.279
  WS02006256           JUNCTION        6.97          2.050        0.000
  WS02006280           JUNCTION        0.48          0.699        0.081
  WS02006284           JUNCTION        0.41          0.684        0.116
  WS02006287           JUNCTION        0.34          0.759        0.131
  YS02001580           JUNCTION        0.27          0.450        0.000
  YS02001583           JUNCTION        0.28          0.390        0.110
  YS02001586           JUNCTION        0.37          0.510        0.000
  YS02001590           JUNCTION        0.42          0.750        0.000
  YS02001593           JUNCTION        0.42          0.719        0.121
  YS02001596           JUNCTION        0.51          0.955        0.115
  YS02001600           JUNCTION        0.61          1.190        0.000
  YS02001601           JUNCTION        0.92          1.440        0.000
  YS02001602           JUNCTION        0.82          1.270        0.000
  YS02001605           JUNCTION        0.77          1.180        0.000
  YS02001607           JUNCTION        0.38          0.649        0.031
  YS02001610           JUNCTION        0.40          0.680        0.000
  YS02001613           JUNCTION        0.37          0.654        0.046
  YS02001616           JUNCTION        0.34          0.610        0.000
  YS02001619           JUNCTION        0.33          0.604        0.006
  YS02001622           JUNCTION        0.33          0.574        0.046
  YS02001625           JUNCTION        0.47          0.780        0.000
  YS02001629           JUNCTION        0.29          0.470        0.000
  YS02001633           JUNCTION        0.47          0.984        0.076
  YS02001641           JUNCTION        0.40          0.952        0.148
  YS02001644           JUNCTION        0.36          0.920        0.000
  YS02001647           JUNCTION        0.19          0.684        0.216
  YS02001649           JUNCTION        0.25          0.808        0.242
  YS02001652           JUNCTION        0.13          0.643        0.487
  YS02001655           JUNCTION        0.06          0.604        0.596
  YS02001658           JUNCTION        0.01          0.501        0.799
  YS02001751           JUNCTION        0.02          0.414        0.786
  YS02001754           JUNCTION        0.07          0.476        0.674
  YS02001757           JUNCTION        0.25          0.730        0.480
  YS02001759           JUNCTION        0.20          0.689        0.521
  YS02001762           JUNCTION        0.18          0.685        0.465
  YS02001765           JUNCTION        0.15          0.660        0.440
  YS02001767           JUNCTION        0.13          0.683        0.347
  YS02001770           JUNCTION        0.12          0.821        0.099
  YS02001774           JUNCTION        0.17          0.941        0.109
  YS02001779           JUNCTION        0.08          0.680        0.000
  YS02001783           JUNCTION        0.26          0.503        1.097
  YS02001784           JUNCTION        0.24          0.379        1.111
  YS02001786           JUNCTION        0.16          0.105        1.325
  YS02001882           JUNCTION        0.22          0.830        0.000
  YS02001884           JUNCTION        0.23          0.854        0.016
  YS02001887           JUNCTION        0.26          0.871        0.079
  YS02001890           JUNCTION        0.27          0.760        0.000
  YS02001895           JUNCTION        0.21          0.611        0.139
  YS02001898           JUNCTION        0.21          0.601        0.139
  YS02001901           JUNCTION        0.25          0.742        0.128
  YS02001904           JUNCTION        0.24          0.685        0.165
  YS02001907           JUNCTION        0.43          0.950        0.000
  YS02001910           JUNCTION        0.29          0.966        0.134
  YS02001915           JUNCTION        0.22          0.908        0.092
  YS02001918           JUNCTION        0.16          0.810        0.000
  YS02001920           JUNCTION        0.17          1.140        0.000
  YS02001923           JUNCTION        0.01          0.820        0.000
  YS02001926           JUNCTION        0.01          0.900        0.000
  YS02001929           JUNCTION        0.01          0.780        0.000
  YS02006553           JUNCTION        0.44          0.990        0.200
  YS02006556           JUNCTION        0.36          0.949        0.401
  YS02006558           JUNCTION        0.35          0.936        0.464
  YS02006561           JUNCTION        0.12          0.174        0.976
  YS02163301           JUNCTION        0.46          0.912        0.118
  YS02163601           JUNCTION        0.50          1.032        0.048
  YS02164001           JUNCTION        0.41          0.949        0.151
  YSB1154              JUNCTION        0.54          1.194        0.206
  YSB1171              JUNCTION        0.54          1.100        0.000
  YSB1174              JUNCTION        0.49          1.098        0.152
  YSB6556              JUNCTION        0.44          1.021        0.079
  
  
  *********************
  Node Flooding Summary
  *********************
  
  Flooding refers to all water that overflows a node, whether it ponds or not.
  --------------------------------------------------------------------------
                                                             Total   Maximum
                                 Maximum   Time of Max       Flood    Ponded
                        Hours       Rate    Occurrence      Volume     Depth
  Node                 Flooded       LPS   days hr:min    10^6 ltr    Meters
  --------------------------------------------------------------------------
  HS02004770              0.18    586.18      0  02:25       0.220     0.000
  HS02004777              0.01     62.34      0  02:20       0.000     0.000
  HS02004785              0.01    108.13      0  02:20       0.000     0.000
  HS02004788              0.01    229.54      0  02:20       0.001     0.000
  HS02004792              0.18   1007.37      0  02:25       0.352     0.000
  HS02004799              0.04     68.55      0  02:23       0.004     0.000
  HS02004807              0.01     26.47      0  02:23       0.000     0.000
  HS02004817              0.01      8.64      0  02:23       0.000     0.000
  HS02004824              0.01     15.98      0  02:23       0.000     0.000
  HS02004830              0.01     20.90      0  02:23       0.000     0.000
  HS02004842              0.01    101.34      0  02:23       0.001     0.000
  HS02004852              0.01    158.77      0  02:23       0.000     0.000
  HS02004856              0.01    219.23      0  02:23       0.001     0.000
  HS02004862              0.01    130.46      0  02:23       0.001     0.000
  HS02004881              0.01    268.18      0  02:23       0.000     0.000
  HS02004901              0.23    480.92      0  02:26       0.278     0.000
  WS02006109              0.21    214.69      0  02:25       0.091     0.000
  WS02006228              0.01      0.73      0  02:23       0.000     0.000
  WS02006230              0.42    546.29      0  02:25       0.489     0.000
  WS02006231              0.01      0.92      0  02:15       0.000     0.000
  WS02006232              0.10      1.28      0  02:15       0.000     0.000
  WS02006234              0.47    128.84      0  02:24       0.104     0.000
  WS02006235              0.01     11.57      0  03:10       0.000     0.000
  WS02006238              0.01      2.46      0  02:15       0.000     0.000
  WS02006239              0.01      0.93      0  02:15       0.000     0.000
  WS02006242              0.55    137.48      0  02:24       0.227     0.000
  WS02006248              0.77    342.27      0  02:18       0.781     0.000
  WS02006249              1.06   1266.44      0  02:23       2.463     0.000
  WS02006251              0.01     41.09      0  02:23       0.000     0.000
  WS02006252              0.23    245.63      0  00:00       0.077     0.000
  WS02006256              0.57    294.58      0  02:22       0.292     0.000
  YS02001580              0.01     89.92      0  02:20       0.000     0.000
  YS02001586              0.20    133.93      0  02:26       0.053     0.000
  YS02001590              0.01      9.15      0  02:20       0.000     0.000
  YS02001600              0.01      2.70      0  02:20       0.000     0.000
  YS02001601              0.31    717.53      0  02:25       0.464     0.000
  YS02001602              0.22     62.04      0  02:32       0.040     0.000
  YS02001605              0.01      0.14      0  02:24       0.000     0.000
  YS02001610              0.17    273.03      0  02:27       0.111     0.000
  YS02001625              0.14    619.44      0  02:26       0.161     0.000
  YS02001629              0.02     80.49      0  02:20       0.001     0.000
  YS02001644              0.01     13.45      0  02:25       0.000     0.000
  YS02001779              0.01    221.70      0  02:24       0.002     0.000
  YS02001882              0.01      8.57      0  02:23       0.000     0.000
  YS02001890              0.03     85.56      0  02:23       0.004     0.000
  YS02001907              0.11    986.58      0  02:25       0.187     0.000
  YS02001918              0.01    164.32      0  02:24       0.002     0.000
  YS02001920              0.01     32.22      0  02:24       0.000     0.000
  YS02001923              0.01     88.38      0  02:24       0.000     0.000
  YS02001926              0.01    168.58      0  02:24       0.001     0.000
  YS02001929              0.01    166.23      0  02:24       0.001     0.000
  YSB1171                 0.09    355.14      0  02:25       0.074     0.000
  
  
  **********************
  Storage Volume Summary
  **********************
  
  --------------------------------------------------------------------------------------------------
                         Average     Avg  Evap Exfil       Maximum     Max    Time of Max    Maximum
                          Volume    Pcnt  Pcnt  Pcnt        Volume    Pcnt     Occurrence    Outflow
  Storage Unit           1000 m3    Full  Loss  Loss       1000 m3    Full    days hr:min        LPS
  --------------------------------------------------------------------------------------------------
  CC-storage               1.782      28     0     0         3.786      59       0  02:45    1783.53
  JK-storage               0.068      23     0     0         0.211      73       0  02:23    2300.00
  XR-storage               0.945      66     0     0         1.111      77       0  08:00     380.00
  
  
  ***********************
  Outfall Loading Summary
  ***********************
  
  -----------------------------------------------------------
                         Flow       Avg       Max       Total
                         Freq      Flow      Flow      Volume
  Outfall Node           Pcnt       LPS       LPS    10^6 ltr
  -----------------------------------------------------------
  CC-1                  25.92    683.00    683.00       2.887
  CC-2                  30.07    683.00    683.00       2.998
  JK-1                   7.75   1000.00   1000.00       1.304
  JK-2                   4.24   1000.00   1000.00       0.752
  WSC                   99.95    576.04   1478.32      12.275
  -----------------------------------------------------------
  System                33.59   3942.04   1478.32      20.216
  
  
  ********************
  Link Flow Summary
  ********************
  
  -----------------------------------------------------------------------------
                                 Maximum  Time of Max   Maximum    Max/    Max/
                                  |Flow|   Occurrence   |Veloc|    Full    Full
  Link                 Type          LPS  days hr:min     m/sec    Flow   Depth
  -----------------------------------------------------------------------------
  1                    CONDUIT   1478.32     0  02:29      3.68    0.51    0.51
  HS02004478WS02006287 CONDUIT   2250.75     0  02:25      2.60    0.63    1.00
  HS02004479HS02004480 CONDUIT    456.91     0  02:23      0.65    0.44    1.00
  HS02004480HS02004478 CONDUIT   2120.65     0  02:21      3.03    8.93    1.00
  HS02004770HS02004777 CONDUIT    752.70     0  02:20      1.08    1.38    1.00
  HS02004777HS02004785 CONDUIT    771.60     0  02:20      1.15    0.95    1.00
  HS02004785HS02004788 CONDUIT    647.69     0  02:20      1.37    4.88    1.00
  HS02004788HS02004792 CONDUIT    810.06     0  02:20      1.42    0.54    1.00
  HS02004792HS02004799 CONDUIT   1631.09     0  02:21      2.33    1.00    1.00
  HS02004799HS02004480 CONDUIT   1775.24     0  02:21      2.54    2.24    1.00
  HS02004802HS02004478 CONDUIT    743.79     0  02:25      1.06    0.66    1.00
  HS02004807HS02004802 CONDUIT    743.71     0  02:25      1.06    1.42    1.00
  HS02004817HS02004807 CONDUIT    469.79     0  02:25      0.67    0.28    1.00
  HS02004817HS02004824 CONDUIT    469.26     0  02:25      0.67    0.21    1.00
  HS02004824HS02004830 CONDUIT    659.95     0  02:20      0.97    0.86    1.00
  HS02004830HS02004837 CONDUIT    661.13     0  02:21      1.03    0.66    1.00
  HS02004837HS02004842 CONDUIT    836.65     0  02:21      1.20    0.50    1.00
  HS02004842HS02004848 CONDUIT    835.72     0  02:21      1.32    0.49    1.00
  HS02004848HS02004852 CONDUIT   1083.89     0  02:23      1.63    1.22    1.00
  HS02004852HS02004856 CONDUIT   1091.63     0  02:23      1.56    1.25    1.00
  HS02004856HS02004862 CONDUIT   1129.94     0  02:23      1.71    1.13    1.00
  HS02004862HS02004870 CONDUIT   1224.77     0  02:23      1.97    1.32    1.00
  HS02004870HS02004876 CONDUIT   1261.28     0  02:23      1.97    0.84    1.00
  HS02004876HS02004881 CONDUIT   1376.59     0  02:23      2.53   14.64    1.00
  HS02004881HS02006253 CONDUIT   1459.92     0  02:23      2.45    0.29    1.00
  HS02004901HS02004770 CONDUIT    264.27     0  02:31      0.38    0.99    1.00
  WS02001211WS02001212 CONDUIT    210.54     0  02:49      0.54    0.16    0.68
  WS02001212WS02001213 CONDUIT    215.32     0  02:48      1.04    0.33    0.55
  WS02001213WS02003059 CONDUIT    219.75     0  02:53      0.47    0.36    0.89
  WS02003059WS02003060 CONDUIT    226.01     0  02:52      0.66    0.15    0.80
  WS02003060WS02003069 CONDUIT   1475.94     0  02:27      2.07    0.58    0.60
  WS02003066WSF200     CONDUIT   1278.01     0  02:25      3.25    0.22    0.38
  WS02003067WS02003066 CONDUIT   1277.82     0  02:25      1.98    0.41    0.56
  WS02003069WS02003072 CONDUIT   1476.06     0  02:28      1.88    0.71    0.65
  WS02003072WS02003073 CONDUIT   1476.14     0  02:28      2.04    3.19    0.61
  WS02004138WS02004139 CONDUIT    190.02     0  00:29      2.14    0.04    0.41
  WS02004139WS02001211 CONDUIT    197.14     0  03:18      0.55    0.25    0.60
  WS02004401WS02004402 CONDUIT   1279.07     0  02:25      1.63    1.54    1.00
  WS02004402WS02004403 CONDUIT   1279.22     0  02:25      1.63    1.84    1.00
  WS02004403WS02004404 CONDUIT   1280.19     0  02:25      1.63    0.93    1.00
  WS02004404WS02004405 CONDUIT   1279.43     0  02:25      1.63   12.53    1.00
  WS02004405WS02004406 CONDUIT   1279.71     0  02:25      1.63    2.52    1.00
  WS02004406WS02004407 CONDUIT   1279.47     0  02:25      1.75    0.57    0.94
  WS02004407WS02004409 CONDUIT   1277.23     0  02:25      1.75    0.45    0.94
  WS02004409WS02004410 CONDUIT   1277.56     0  02:26      1.63    1.65    1.00
  WS02004410WS02004411 CONDUIT   1277.14     0  02:26      1.63    1.74    1.00
  WS02004411WS02004412 CONDUIT   1277.31     0  02:26      1.63    1.81    1.00
  WS02004412WS02004413 CONDUIT   1277.24     0  02:26      1.63    0.86    1.00
  WS02004413WS02003067 CONDUIT   1277.24     0  02:26      1.98    0.55    0.76
  WS02006109WS02006110 CONDUIT   1118.59     0  02:33      2.23    2.15    1.00
  WS02006110WS02006113 CONDUIT   1118.60     0  02:33      2.23    1.02    1.00
  WS02006111WS02006112 CONDUIT   1118.69     0  02:33      2.23    0.53    1.00
  WS02006112WS02006115 CONDUIT   1278.58     0  02:24      1.63    0.75    1.00
  WS02006113WS02006111 CONDUIT   1118.78     0  02:33      2.62    1.34    1.00
  WS02006115WS02006116 CONDUIT   1278.45     0  02:25      1.63    1.64    1.00
  WS02006116WS02004401 CONDUIT   1279.28     0  02:25      1.63    1.76    1.00
  WS02006228WS02006109 CONDUIT   1260.58     0  02:25      2.51    5.51    1.00
  WS02006229WS02006228 CONDUIT   1260.42     0  02:25      2.51    4.17    1.00
  WS02006230WS02006229 CONDUIT    988.75     0  02:25      2.57   22.00    1.00
  WS02006231WS02006230 CONDUIT    459.60     0  03:10      1.28    6.97    1.00
  WS02006232WS02006231 CONDUIT    459.53     0  03:10      1.19    0.96    1.00
  WS02006234WS02006232 CONDUIT    459.40     0  03:10      1.41    0.93    1.00
  WS02006235WS02006234 CONDUIT    459.49     0  03:10      1.23    4.85    1.00
  WS02006238WS02006235 CONDUIT    415.86     0  02:23      1.45    0.93    1.00
  WS02006239WS02006238 CONDUIT    415.40     0  02:23      1.12    1.33    1.00
  WS02006240WS02006239 CONDUIT    415.42     0  02:24      1.26    1.31    1.00
  WS02006242WS02006240 CONDUIT    415.67     0  02:24      1.14    1.65    1.00
  WS02006243WS02006242 CONDUIT    401.22     0  03:17      1.34    0.86    1.00
  WS02006245WS02006243 CONDUIT    402.10     0  03:17      1.39    1.19    1.00
  WS02006247WS02006245 CONDUIT    403.11     0  03:17      1.37    3.20    1.00
  WS02006248WS02006247 CONDUIT    404.03     0  03:17      1.38    0.88    1.00
  WS02006249WS02006248 CONDUIT    405.28     0  03:17      1.38    2.22    1.00
  WS02006251WS02006249 CONDUIT   1328.13     0  02:23      3.45    3.83    1.00
  WS02006252WS02006251 CONDUIT    410.71     0  02:44     25.98    1.51    1.00
  WS02006253WS02006251 CONDUIT   1489.48     0  02:23      3.87    4.47    1.00
  WS02006256WS02006235 CONDUIT    288.93     0  00:00      4.23    3.06    1.00
  WS02006280WS02006229 CONDUIT   2249.77     0  02:25      4.37    0.48    1.00
  WS02006284WS02006280 CONDUIT   2248.60     0  02:25      2.96    0.94    1.00
  WS02006287WS02006284 CONDUIT   2249.86     0  02:25      2.86    1.04    1.00
  WSF200WS02003060     CONDUIT   1277.83     0  02:26      2.29    0.28    0.50
  YS02001580YS02001583 CONDUIT    113.61     0  02:20      0.69    0.44    1.00
  YS02001583YS02001586 CONDUIT    167.10     0  02:20      0.69    0.25    1.00
  YS02001586YS02001590 CONDUIT    318.03     0  02:28      1.27    0.56    1.00
  YS02001590YS02001593 CONDUIT    318.07     0  02:25      1.12    2.00    1.00
  YS02001593YS02001596 CONDUIT    317.99     0  02:25      1.74    0.50    1.00
  YS02001596YS02001600 CONDUIT    318.11     0  02:26      1.23    0.62    1.00
  YS02001600YS02001601 CONDUIT    317.92     0  02:25      1.12    0.55    1.00
  YS02001601YS02001602 CONDUIT    516.78     0  02:20      1.83    1.87    1.00
  YS02001602YS02001605 CONDUIT    516.64     0  02:20      1.83   10.93    1.00
  YS02001605YS02001607 CONDUIT    516.48     0  02:20      1.83    2.83    1.00
  YS02001607YS02001610 CONDUIT    515.11     0  02:20      0.66    0.49    1.00
  YS02001610YS02001613 CONDUIT    515.42     0  02:19      0.66    0.59    1.00
  YS02001613YS02001616 CONDUIT    518.86     0  02:19      0.67    0.44    1.00
  YS02001616YS02001619 CONDUIT    517.31     0  02:20      0.69    0.90    1.00
  YS02001619YS02001622 CONDUIT    949.40     0  02:20      1.21    1.40    1.00
  YS02001622YS02001625 CONDUIT    958.23     0  02:20      1.22    0.51    1.00
  YS02001625YS02001629 CONDUIT    961.20     0  02:20      1.23    0.46    1.00
  YS02001629YS02163301 CONDUIT    938.25     0  02:22      1.19    1.16    1.00
  YS02001633YS02163601 CONDUIT   1422.81     0  02:23      1.81    1.49    1.00
  YS02001641YS02001644 CONDUIT   1415.57     0  02:23      1.80    4.58    1.00
  YS02001644YS02001647 CONDUIT   1851.52     0  02:23      2.36    1.09    1.00
  YS02001647YS02001649 CONDUIT   1868.84     0  02:23      2.40    0.99    1.00
  YS02001649YS02001757 CONDUIT   2158.32     0  02:23      2.75    1.31    1.00
  YS02001652YS02001649 CONDUIT    599.29     0  02:27      0.76    0.30    1.00
  YS02001655YS02001652 CONDUIT    599.43     0  02:27      1.29    0.29    1.00
  YS02001658YS02001655 CONDUIT    600.72     0  02:27      1.94    0.25    1.00
  YS02001661YS02001658 CONDUIT    708.32     0  02:25      2.38    0.28    0.83
  YS02001664YS02001661 CONDUIT    543.20     0  02:25      2.37    0.17    0.52
  YS02001745YS02001748 CONDUIT    487.11     0  02:26      2.23    0.19    0.61
  YS02001748YS02001751 CONDUIT    432.46     0  02:27      1.74    0.22    0.97
  YS02001751YS02001754 CONDUIT    387.80     0  02:27      1.44    0.19    1.00
  YS02001754YS02001757 CONDUIT    387.08     0  02:27      0.49    0.16    1.00
  YS02001757CaochengTiaoxuchi CONDUIT   3275.92     0  02:26      4.39    1.42    1.00
  YS02001759YS02001757 CONDUIT   1207.01     0  02:24      1.54    0.86    1.00
  YS02001762YS02001759 CONDUIT    728.78     0  02:24      0.93    0.84    1.00
  YS02001765YS02001762 CONDUIT    719.00     0  02:24      0.92    0.67    1.00
  YS02001767YS02001765 CONDUIT    708.06     0  02:24      0.90    0.89    1.00
  YS02001770YS02001767 CONDUIT    698.37     0  02:24      0.89    2.77    1.00
  YS02001774YS02001770 CONDUIT    305.29     0  02:24      0.39    0.20    1.00
  YS02001779YS02001774 CONDUIT    304.10     0  02:24      0.39    0.15    1.00
  YS02001783YS02001784 CONDUIT   1151.89     0  02:25      2.29    1.59    1.00
  YS02001784YS02001785 CONDUIT   1152.81     0  02:25      2.29    2.68    1.00
  YS02001786YS02001788 CONDUIT   1153.29     0  02:25      2.47    2.22    0.89
  YS02001788YS02001790 CONDUIT   1161.18     0  02:26      2.70    0.86    0.83
  YS02001790YS02001791 CONDUIT   1266.87     0  02:26      3.40    1.38    0.70
  YS02001791YS02001793 CONDUIT   1223.92     0  02:26      6.76    0.53    0.42
  YS02001793JiankangQianchi CONDUIT   1233.49     0  02:30      2.48    0.10    0.63
  YS02001882YS02001884 CONDUIT     61.62     0  02:22      0.08    0.07    1.00
  YS02001884YS02001887 CONDUIT     81.53     0  02:22      0.10    0.11    1.00
  YS02001887YS02001890 CONDUIT    515.20     0  02:25      0.66    0.88    1.00
  YS02001890YS02001895 CONDUIT    492.95     0  02:25      0.63    0.23    1.00
  YS02001895YS02001898 CONDUIT    492.85     0  02:25      0.63    0.86    1.00
  YS02001898YS02001901 CONDUIT    493.77     0  02:25      0.63    0.32    1.00
  YS02001901YS02001904 CONDUIT    493.38     0  02:23      0.63    0.77    1.00
  YS02001904YS02001907 CONDUIT    497.12     0  02:23      0.63    0.17    1.00
  YS02001907YS02006553 CONDUIT    795.73     0  02:33      0.88    0.94    1.00
  YS02001910YS02001907 CONDUIT   1000.58     0  02:25      1.27    0.56    1.00
  YS02001915YS02001910 CONDUIT    999.73     0  02:25      1.27    0.50    1.00
  YS02001918YS02001915 CONDUIT    462.88     0  02:25      0.59    0.26    1.00
  YS02001920YS02001918 CONDUIT    461.24     0  02:25      0.64    0.45    1.00
  YS02001923YS02001920 CONDUIT    457.37     0  02:25      0.72    0.21    1.00
  YS02001926YS02001923 CONDUIT    419.80     0  02:25      0.98    0.60    1.00
  YS02001929YS02001926 CONDUIT    415.66     0  02:25      1.16    0.20    1.00
  YS02006553YS02006556 CONDUIT    795.41     0  02:33      1.01    0.68    1.00
  YS02006556YS02006558 CONDUIT    797.44     0  02:33      1.02    0.63    1.00
  YS02006558YS02006561 CONDUIT   1157.49     0  02:23      4.09    2.56    1.00
  YS02006561YS02001783 CONDUIT   1151.57     0  02:25      2.29    0.60    1.00
  YS02163301YS02001633 CONDUIT    938.18     0  02:22      1.19    0.88    1.00
  YS02163601YS02164001 CONDUIT   1421.04     0  02:23      1.81    1.26    1.00
  YS02164001YS02001641 CONDUIT   1417.23     0  02:23      1.80    1.94    1.00
  YSB1154YSB6556       CONDUIT    283.47     0  02:25      0.74    0.51    1.00
  YSB1171HS02004479    CONDUIT    459.18     0  02:23      0.91    0.31    1.00
  YSB1174YSB1171       CONDUIT    244.08     0  02:25      0.63    0.37    1.00
  YSB6556YSB1171       CONDUIT    283.91     0  02:25      0.74    0.29    1.00
  CC-R1                PUMP       683.00     0  00:00              1.00
  CC-R2                PUMP       683.00     0  00:00              1.00
  CC-S1                PUMP       200.00     0  00:00              1.00
  CC-S2                PUMP       200.00     0  00:00              1.00
  JK-R1                PUMP      1000.00     0  00:00              1.00
  JK-R2                PUMP      1000.00     0  00:00              1.00
  JK-S                 PUMP       300.00     0  00:00              1.00
  XR-1                 PUMP        95.00     0  00:00              1.00
  XR-2                 PUMP        95.00     0  00:00              1.00
  XR-3                 PUMP        95.00     0  00:00              1.00
  XR-4                 PUMP        95.00     0  00:00              1.00
  
  
  ***************************
  Flow Classification Summary
  ***************************
  
  -------------------------------------------------------------------------------------
                      Adjusted    ---------- Fraction of Time in Flow Class ---------- 
                       /Actual         Up    Down  Sub   Sup   Up    Down  Norm  Inlet 
  Conduit               Length    Dry  Dry   Dry   Crit  Crit  Crit  Crit  Ltd   Ctrl  
  -------------------------------------------------------------------------------------
  1                       1.00   0.00  0.00  0.00  0.00  1.00  0.00  0.00  0.34  0.00
  HS02004478WS02006287    1.00   0.11  0.00  0.00  0.56  0.33  0.00  0.00  0.62  0.00
  HS02004479HS02004480    1.00   0.04  0.00  0.00  0.96  0.00  0.00  0.00  0.12  0.00
  HS02004480HS02004478    1.00   0.09  0.00  0.00  0.45  0.00  0.00  0.46  0.00  0.00
  HS02004770HS02004777    1.00   0.00  0.09  0.00  0.91  0.00  0.00  0.00  0.03  0.00
  HS02004777HS02004785    1.00   0.00  0.00  0.00  1.00  0.00  0.00  0.00  0.14  0.00
  HS02004785HS02004788    1.00   0.00  0.00  0.00  1.00  0.00  0.00  0.00  0.00  0.00
  HS02004788HS02004792    1.00   0.00  0.00  0.00  0.99  0.01  0.00  0.00  0.93  0.00
  HS02004792HS02004799    1.00   0.00  0.00  0.00  0.99  0.01  0.00  0.00  0.90  0.00
  HS02004799HS02004480    1.00   0.00  0.03  0.00  0.89  0.00  0.07  0.00  0.00  0.00
  HS02004802HS02004478    1.00   0.09  0.00  0.00  0.90  0.00  0.00  0.00  0.03  0.00
  HS02004807HS02004802    1.00   0.09  0.00  0.00  0.90  0.00  0.00  0.01  0.00  0.00
  HS02004817HS02004807    1.00   0.00  0.09  0.00  0.91  0.00  0.00  0.00  0.01  0.00
  HS02004817HS02004824    1.00   0.00  0.00  0.00  1.00  0.00  0.00  0.00  0.87  0.00
  HS02004824HS02004830    1.00   0.00  0.00  0.00  1.00  0.00  0.00  0.00  0.01  0.00
  HS02004830HS02004837    1.00   0.00  0.00  0.00  1.00  0.00  0.00  0.00  0.92  0.00
  HS02004837HS02004842    1.00   0.00  0.00  0.00  1.00  0.00  0.00  0.00  0.11  0.00
  HS02004842HS02004848    1.00   0.00  0.09  0.00  0.91  0.00  0.00  0.00  0.60  0.00
  HS02004848HS02004852    1.00   0.09  0.00  0.00  0.91  0.00  0.00  0.00  0.69  0.00
  HS02004852HS02004856    1.00   0.09  0.01  0.00  0.90  0.00  0.00  0.00  0.73  0.00
  HS02004856HS02004862    1.00   0.00  0.12  0.00  0.88  0.00  0.00  0.00  0.76  0.00
  HS02004862HS02004870    1.00   0.00  0.00  0.00  1.00  0.00  0.00  0.00  0.05  0.00
  HS02004870HS02004876    1.00   0.00  0.00  0.00  0.99  0.01  0.00  0.00  0.90  0.00
  HS02004876HS02004881    1.00   0.02  0.00  0.00  0.78  0.20  0.00  0.00  0.00  0.00
  HS02004881HS02006253    1.00   0.03  0.02  0.00  0.36  0.05  0.00  0.54  0.15  0.00
  HS02004901HS02004770    1.00   0.09  0.00  0.00  0.91  0.00  0.00  0.00  0.00  0.00
  WS02001211WS02001212    1.00   0.00  0.02  0.00  0.98  0.00  0.00  0.00  0.00  0.00
  WS02001212WS02001213    1.00   0.02  0.00  0.00  0.46  0.00  0.52  0.00  0.00  0.00
  WS02001213WS02003059    1.00   0.00  0.00  0.00  0.99  0.00  0.00  0.00  0.00  0.00
  WS02003059WS02003060    1.00   0.00  0.00  0.00  1.00  0.00  0.00  0.00  0.03  0.00
  WS02003060WS02003069    1.00   0.00  0.00  0.00  0.98  0.02  0.00  0.00  0.54  0.00
  WS02003066WSF200        1.00   0.06  0.00  0.00  0.00  0.94  0.00  0.00  0.73  0.00
  WS02003067WS02003066    1.00   0.05  0.00  0.00  0.94  0.00  0.00  0.00  0.00  0.00
  WS02003069WS02003072    1.00   0.00  0.00  0.00  1.00  0.00  0.00  0.00  0.72  0.00
  WS02003072WS02003073    1.00   0.00  0.00  0.00  0.00  0.00  0.00  1.00  0.00  0.00
  WS02004138WS02004139    1.00   0.00  0.00  0.00  0.98  0.01  0.00  0.01  0.98  0.00
  WS02004139WS02001211    1.00   0.00  0.00  0.00  0.99  0.00  0.00  0.00  0.00  0.00
  WS02004401WS02004402    1.00   0.02  0.00  0.00  0.98  0.00  0.00  0.00  0.00  0.00
  WS02004402WS02004403    1.00   0.02  0.00  0.00  0.97  0.00  0.00  0.00  0.00  0.00
  WS02004403WS02004404    1.00   0.00  0.03  0.00  0.97  0.00  0.00  0.00  0.00  0.00
  WS02004404WS02004405    1.00   0.00  0.00  0.00  1.00  0.00  0.00  0.00  0.00  0.00
  WS02004405WS02004406    1.00   0.00  0.00  0.00  1.00  0.00  0.00  0.00  0.00  0.00
  WS02004406WS02004407    1.00   0.00  0.04  0.00  0.96  0.00  0.00  0.00  0.00  0.00
  WS02004407WS02004409    1.00   0.04  0.00  0.00  0.95  0.01  0.00  0.00  0.87  0.00
  WS02004409WS02004410    1.00   0.04  0.00  0.00  0.95  0.00  0.00  0.00  0.00  0.00
  WS02004410WS02004411    1.00   0.04  0.00  0.00  0.95  0.00  0.00  0.00  0.00  0.00
  WS02004411WS02004412    1.00   0.05  0.00  0.00  0.95  0.00  0.00  0.00  0.00  0.00
  WS02004412WS02004413    1.00   0.05  0.00  0.00  0.95  0.00  0.00  0.00  0.00  0.00
  WS02004413WS02003067    1.00   0.05  0.01  0.00  0.00  0.00  0.95  0.00  0.00  0.00
  WS02006109WS02006110    1.00   0.00  0.01  0.00  0.98  0.00  0.01  0.00  0.00  0.00
  WS02006110WS02006113    1.00   0.01  0.01  0.00  0.98  0.00  0.00  0.00  0.00  0.00
  WS02006111WS02006112    1.00   0.02  0.00  0.00  0.98  0.00  0.00  0.00  0.83  0.00
  WS02006112WS02006115    1.00   0.02  0.00  0.00  0.97  0.00  0.00  0.00  0.00  0.00
  WS02006113WS02006111    1.00   0.02  0.00  0.00  0.20  0.78  0.00  0.00  0.07  0.00
  WS02006115WS02006116    1.00   0.02  0.00  0.00  0.97  0.00  0.00  0.01  0.00  0.00
  WS02006116WS02004401    1.00   0.02  0.00  0.00  0.98  0.00  0.00  0.00  0.00  0.00
  WS02006228WS02006109    1.00   0.00  0.00  0.00  1.00  0.00  0.00  0.00  0.00  0.00
  WS02006229WS02006228    1.00   0.00  0.00  0.00  0.99  0.00  0.00  0.01  0.00  0.00
  WS02006230WS02006229    1.00   0.00  0.00  0.00  0.99  0.00  0.00  0.01  0.05  0.00
  WS02006231WS02006230    1.00   0.00  0.00  0.00  0.48  0.00  0.52  0.00  0.00  0.00
  WS02006232WS02006231    1.00   0.00  0.00  0.00  0.99  0.00  0.00  0.00  0.00  0.00
  WS02006234WS02006232    1.00   0.00  0.00  0.00  1.00  0.00  0.00  0.00  0.05  0.00
  WS02006235WS02006234    1.00   0.00  0.00  0.00  0.91  0.00  0.09  0.00  0.00  0.00
  WS02006238WS02006235    1.00   0.00  0.00  0.00  1.00  0.00  0.00  0.00  0.01  0.00
  WS02006239WS02006238    1.00   0.00  0.00  0.00  1.00  0.00  0.00  0.00  0.14  0.00
  WS02006240WS02006239    1.00   0.00  0.00  0.00  0.79  0.00  0.00  0.21  0.05  0.00
  WS02006242WS02006240    1.00   0.00  0.00  0.00  0.99  0.00  0.00  0.00  0.00  0.00
[...]
  WS02006256WS02006235    1.00   0.00  0.00  0.00  0.98  0.02  0.00  0.00  0.01  0.00
  WS02006280WS02006229    1.00   0.09  0.00  0.00  0.16  0.03  0.00  0.72  0.01  0.00
  WS02006284WS02006280    1.00   0.09  0.00  0.00  0.11  0.02  0.00  0.78  0.00  0.00
  WS02006287WS02006284    1.00   0.08  0.03  0.00  0.41  0.48  0.00  0.00  0.67  0.00
  WSF200WS02003060        1.00   0.00  0.06  0.00  0.53  0.41  0.00  0.00  0.69  0.00
  YS02001580YS02001583    1.00   0.30  0.43  0.00  0.28  0.00  0.00  0.00  0.66  0.00
  YS02001583YS02001586    1.00   0.31  0.32  0.00  0.36  0.00  0.00  0.00  0.66  0.00
  YS02001586YS02001590    1.00   0.09  0.00  0.00  0.60  0.03  0.00  0.27  0.36  0.00
  YS02001590YS02001593    1.00   0.09  0.00  0.00  0.11  0.00  0.80  0.00  0.00  0.00
  YS02001593YS02001596    1.00   0.09  0.00  0.00  0.13  0.01  0.00  0.77  0.01  0.00
  YS02001596YS02001600    1.00   0.09  0.00  0.00  0.23  0.02  0.00  0.66  0.05  0.00
  YS02001600YS02001601    1.00   0.09  0.00  0.00  0.90  0.00  0.00  0.00  0.65  0.00
  YS02001601YS02001602    1.00   0.09  0.01  0.00  0.91  0.00  0.00  0.00  0.00  0.00
  YS02001602YS02001605    1.00   0.09  0.00  0.00  0.91  0.00  0.00  0.00  0.00  0.00
  YS02001605YS02001607    1.00   0.10  0.00  0.00  0.90  0.00  0.00  0.00  0.00  0.00
  YS02001607YS02001610    1.00   0.09  0.00  0.00  0.90  0.00  0.00  0.00  0.02  0.00
  YS02001610YS02001613    1.00   0.09  0.00  0.00  0.91  0.00  0.00  0.00  0.01  0.00
  YS02001613YS02001616    1.00   0.09  0.00  0.00  0.91  0.00  0.00  0.00  0.01  0.00
  YS02001616YS02001619    1.00   0.09  0.00  0.00  0.91  0.00  0.00  0.00  0.00  0.00
  YS02001619YS02001622    1.00   0.09  0.00  0.00  0.91  0.00  0.00  0.00  0.35  0.00
  YS02001622YS02001625    1.00   0.09  0.00  0.00  0.91  0.00  0.00  0.00  0.07  0.00
  YS02001625YS02001629    1.00   0.09  0.04  0.00  0.15  0.00  0.72  0.00  0.00  0.00
  YS02001629YS02163301    1.00   0.11  0.01  0.00  0.89  0.00  0.00  0.00  0.00  0.00
  YS02001633YS02163601    1.00   0.00  0.01  0.00  0.99  0.00  0.00  0.00  0.16  0.00
  YS02001641YS02001644    1.00   0.00  0.00  0.00  1.00  0.00  0.00  0.00  0.00  0.00
  YS02001644YS02001647    1.00   0.00  0.13  0.00  0.87  0.00  0.00  0.00  0.00  0.00
  YS02001647YS02001649    1.00   0.00  0.13  0.00  0.42  0.45  0.00  0.00  0.59  0.00
  YS02001649YS02001757    1.00   0.00  0.00  0.00  0.52  0.48  0.00  0.00  0.57  0.00
  YS02001652YS02001649    1.00   0.00  0.00  0.00  0.96  0.03  0.00  0.00  0.81  0.00
  YS02001655YS02001652    1.00   0.00  0.00  0.00  0.17  0.03  0.00  0.80  0.05  0.00
  YS02001658YS02001655    1.00   0.00  0.10  0.00  0.48  0.43  0.00  0.00  0.76  0.00
  YS02001661YS02001658    1.00   0.10  0.00  0.00  0.32  0.58  0.00  0.00  0.75  0.00
  YS02001664YS02001661    1.00   0.09  0.00  0.00  0.75  0.16  0.00  0.00  0.86  0.00
  YS02001745YS02001748    1.00   0.00  0.00  0.00  0.03  0.01  0.00  0.96  0.02  0.00
  YS02001748YS02001751    1.00   0.00  0.00  0.00  0.67  0.33  0.00  0.00  0.81  0.00
  YS02001751YS02001754    1.00   0.00  0.00  0.00  0.12  0.01  0.00  0.87  0.02  0.00
  YS02001754YS02001757    1.00   0.00  0.00  0.00  1.00  0.00  0.00  0.00  0.91  0.00
  YS02001757CaochengTiaoxuchi    1.00   0.00  0.00  0.00  0.91  0.09  0.00  0.00  0.88  0.00
  YS02001759YS02001757    1.00   0.00  0.00  0.00  1.00  0.00  0.00  0.00  0.65  0.00
  YS02001762YS02001759    1.00   0.00  0.00  0.00  1.00  0.00  0.00  0.00  0.06  0.00
  YS02001765YS02001762    1.00   0.00  0.00  0.00  1.00  0.00  0.00  0.00  0.78  0.00
  YS02001767YS02001765    1.00   0.00  0.00  0.00  1.00  0.00  0.00  0.00  0.00  0.00
  YS02001770YS02001767    1.00   0.00  0.00  0.00  1.00  0.00  0.00  0.00  0.00  0.00
  YS02001774YS02001770    1.00   0.00  0.09  0.00  0.74  0.00  0.16  0.00  0.04  0.00
  YS02001779YS02001774    1.00   0.00  0.00  0.00  1.00  0.00  0.00  0.00  0.84  0.00
  YS02001783YS02001784    1.00   0.00  0.14  0.00  0.86  0.00  0.00  0.00  0.58  0.00
  YS02001784YS02001785    1.00   0.00  0.00  0.00  1.00  0.00  0.00  0.00  0.19  0.00
  YS02001786YS02001788    1.00   0.00  0.00  0.00  0.64  0.36  0.00  0.00  0.00  0.00
  YS02001788YS02001790    1.00   0.00  0.00  0.00  0.17  0.83  0.00  0.00  0.86  0.00
  YS02001790YS02001791    1.00   0.00  0.00  0.00  0.01  0.99  0.00  0.00  0.14  0.00
  YS02001791YS02001793    1.00   0.00  0.00  0.00  0.00  1.00  0.00  0.00  0.00  0.00
  YS02001793JiankangQianchi    1.00   0.00  0.00  0.00  0.98  0.02  0.00  0.00  0.99  0.00
  YS02001882YS02001884    1.00   0.10  0.01  0.00  0.89  0.00  0.00  0.00  0.00  0.00
  YS02001884YS02001887    1.00   0.06  0.03  0.00  0.92  0.00  0.00  0.00  0.00  0.00
  YS02001887YS02001890    1.00   0.00  0.00  0.00  0.97  0.00  0.03  0.00  0.00  0.00
  YS02001890YS02001895    1.00   0.00  0.11  0.00  0.88  0.00  0.00  0.00  0.00  0.00
  YS02001895YS02001898    1.00   0.12  0.01  0.00  0.86  0.00  0.02  0.00  0.00  0.00
  YS02001898YS02001901    1.00   0.12  0.01  0.00  0.88  0.00  0.00  0.00  0.01  0.00
  YS02001901YS02001904    1.00   0.11  0.00  0.00  0.89  0.00  0.00  0.00  0.00  0.00
  YS02001904YS02001907    1.00   0.00  0.11  0.00  0.89  0.00  0.00  0.00  0.00  0.00
  YS02001907YS02006553    1.00   0.00  0.02  0.00  0.98  0.00  0.00  0.00  0.00  0.00
  YS02001910YS02001907    1.00   0.00  0.00  0.00  0.97  0.00  0.00  0.02  0.12  0.00
  YS02001915YS02001910    1.00   0.00  0.00  0.00  0.98  0.02  0.00  0.00  0.18  0.00
  YS02001918YS02001915    1.00   0.00  0.00  0.00  0.98  0.02  0.00  0.00  0.80  0.00
  YS02001920YS02001918    1.00   0.00  0.00  0.00  1.00  0.00  0.00  0.00  0.00  0.00
  YS02001923YS02001920    1.00   0.00  0.00  0.00  1.00  0.00  0.00  0.00  0.96  0.00
  YS02001926YS02001923    1.00   0.00  0.06  0.00  0.04  0.00  0.90  0.00  0.00  0.00
  YS02001929YS02001926    1.00   0.00  0.09  0.00  0.91  0.00  0.00  0.00  0.85  0.00
  YS02006553YS02006556    1.00   0.01  0.00  0.00  0.99  0.00  0.00  0.00  0.03  0.00
  YS02006556YS02006558    1.00   0.00  0.00  0.00  1.00  0.00  0.00  0.00  0.00  0.00
  YS02006558YS02006561    1.00   0.14  0.00  0.00  0.04  0.83  0.00  0.00  0.18  0.00
  YS02006561YS02001783    1.00   0.14  0.00  0.00  0.07  0.79  0.00  0.00  0.72  0.00
  YS02163301YS02001633    1.00   0.00  0.11  0.00  0.89  0.00  0.00  0.00  0.00  0.00
  YS02163601YS02164001    1.00   0.00  0.07  0.00  0.93  0.00  0.00  0.00  0.00  0.00
  YS02164001YS02001641    1.00   0.01  0.06  0.00  0.93  0.00  0.00  0.00  0.06  0.00
  YSB1154YSB6556          1.00   0.09  0.00  0.00  0.91  0.00  0.00  0.00  0.02  0.00
  YSB1171HS02004479       1.00   0.04  0.00  0.00  0.95  0.00  0.00  0.01  0.11  0.00
  YSB1174YSB1171          1.00   0.05  0.03  0.00  0.93  0.00  0.00  0.00  0.00  0.00
  YSB6556YSB1171          1.00   0.04  0.05  0.00  0.91  0.00  0.00  0.00  0.00  0.00
  
  
  *************************
  Conduit Surcharge Summary
  *************************
  
  ----------------------------------------------------------------------------
                                                           Hours        Hours 
                         --------- Hours Full --------   Above Full   Capacity
  Conduit                Both Ends  Upstream  Dnstream   Normal Flow   Limited
  ----------------------------------------------------------------------------
  HS02004478WS02006287        0.25      0.25      0.39      0.01         0.01
  HS02004479HS02004480        0.39      0.39      0.41      0.01         0.01
  HS02004480HS02004478        0.34      0.39      0.34      1.30         0.34
  HS02004770HS02004777        0.31      0.31      0.32      0.08         0.05
  HS02004777HS02004785        0.28      0.28      0.32      0.01         0.01
  HS02004785HS02004788        0.26      0.28      0.26      0.98         0.26
  HS02004788HS02004792        0.26      0.26      0.36      0.01         0.01
  HS02004792HS02004799        0.36      0.36      0.46      0.01         0.01
  HS02004799HS02004480        0.39      0.39      0.46      0.52         0.01
  HS02004802HS02004478        0.35      0.35      0.40      0.01         0.01
  HS02004807HS02004802        0.38      0.38      0.39      0.08         0.08
  HS02004817HS02004807        0.38      0.38      0.80      0.01         0.01
  HS02004817HS02004824        0.27      0.27      0.80      0.01         0.01
  HS02004824HS02004830        0.25      0.25      0.27      0.01         0.01
  HS02004830HS02004837        0.21      0.21      0.25      0.01         0.01
  HS02004837HS02004842        0.21      0.21      0.32      0.01         0.01
  HS02004842HS02004848        0.18      0.18      0.32      0.01         0.01
  HS02004848HS02004852        0.18      0.18      0.20      0.03         0.01
  HS02004852HS02004856        0.20      0.20      0.22      0.02         0.01
  HS02004856HS02004862        0.19      0.19      0.22      0.02         0.01
  HS02004862HS02004870        0.22      0.22      0.23      0.03         0.02
  HS02004870HS02004876        0.23      0.23      0.29      0.01         0.01
  HS02004876HS02004881        0.27      0.29      0.27      0.99         0.27
  HS02004881HS02006253        0.27      0.27      1.04      0.01         0.01
  HS02004901HS02004770        0.31      0.31      0.32      0.01         0.01
  WS02003072WS02003073        0.01      0.01      0.01      1.92         0.01
  WS02004401WS02004402        1.11      1.11      1.12      0.90         0.89
  WS02004402WS02004403        1.12      1.12      1.13      1.11         1.10
  WS02004403WS02004404        1.13      1.13      1.27      0.01         0.01
  WS02004404WS02004405        1.20      1.27      1.20      2.62         1.20
  WS02004405WS02004406        1.16      1.20      1.16      1.47         1.16
  WS02004406WS02004407        0.01      0.01      1.16      0.01         0.01
  WS02004407WS02004409        0.01      0.01      0.64      0.01         0.01
  WS02004409WS02004410        0.62      0.64      0.62      0.98         0.62
  WS02004410WS02004411        0.56      0.62      0.56      1.05         0.56
  WS02004411WS02004412        0.48      0.56      0.48      1.10         0.48
  WS02004412WS02004413        0.48      0.48      0.82      0.01         0.01
  WS02004413WS02003067        0.01      0.01      0.82      0.01         0.01
  WS02006109WS02006110        1.38      1.38      1.65      1.39         0.01
  WS02006110WS02006113        0.81      0.81      1.64      0.20         0.01
  WS02006111WS02006112        0.80      0.80      1.86      0.01         0.01
  WS02006112WS02006115        0.99      0.99      1.50      0.01         0.01
  WS02006113WS02006111        0.80      0.81      0.81      0.86         0.80
  WS02006115WS02006116        1.01      1.01      1.01      0.97         0.96
  WS02006116WS02004401        1.11      1.11      1.11      1.07         1.07
  WS02006228WS02006109        1.63      1.66      1.63      2.01         1.63
  WS02006229WS02006228        1.62      1.63      1.62      1.81         1.62
  WS02006230WS02006229        1.71      1.73      1.71      2.66         0.89
  WS02006231WS02006230        1.23      1.23      1.29      2.17         0.67
  WS02006232WS02006231        1.27      1.27      1.42      0.01         0.08
  WS02006234WS02006232        1.33      1.33      1.42      0.01         0.02
  WS02006235WS02006234        1.31      1.32      1.34      1.89         0.64
  WS02006238WS02006235        1.35      1.35      1.38      0.01         0.22
  WS02006239WS02006238        1.36      1.36      1.36      0.81         0.27
  WS02006240WS02006239        1.30      1.31      1.32      0.78         0.22
  WS02006242WS02006240        1.29      1.29      1.37      1.07         0.56
  WS02006243WS02006242        1.22      1.22      1.33      0.01         0.01
  WS02006245WS02006243        1.18      1.18      1.21      0.22         0.16
  WS02006247WS02006245        1.17      1.18      1.17      1.51         0.38
  WS02006248WS02006247        1.15      1.15      1.18      0.01         0.01
  WS02006249WS02006248        1.13      1.14      1.15      0.79         0.01
  WS02006251WS02006249        1.14      1.14      1.15      1.16         1.05
  WS02006252WS02006251        1.26      1.26      1.30      0.97         0.01
  WS02006253WS02006251        1.13      1.14      1.14      0.49         0.04
  WS02006256WS02006235        2.28      2.31      6.86      0.51         0.01
  WS02006280WS02006229        0.48      0.48      0.60      0.01         0.01
  WS02006284WS02006280        0.41      0.41      0.47      0.01         0.01
  WS02006287WS02006284        0.34      0.34      0.42      0.10         0.10
  YS02001580YS02001583        0.27      0.27      0.31      0.01         0.01
  YS02001583YS02001586        0.28      0.28      0.37      0.01         0.01
  YS02001586YS02001590        0.37      0.37      0.42      0.01         0.01
  YS02001590YS02001593        0.42      0.42      0.44      0.44         0.01
  YS02001593YS02001596        0.43      0.43      0.51      0.01         0.01
  YS02001596YS02001600        0.55      0.55      0.61      0.01         0.01
  YS02001600YS02001601        0.67      0.67      0.92      0.01         0.01
  YS02001601YS02001602        0.82      0.82      0.96      0.63         0.01
  YS02001602YS02001605        0.77      0.77      0.82      1.81         0.01
  YS02001605YS02001607        0.73      0.77      0.73      0.88         0.73
  YS02001607YS02001610        0.38      0.38      0.40      0.01         0.01
  YS02001610YS02001613        0.37      0.37      0.40      0.01         0.01
  YS02001613YS02001616        0.34      0.34      0.37      0.01         0.01
  YS02001616YS02001619        0.33      0.33      0.34      0.01         0.01
  YS02001619YS02001622        0.33      0.33      0.33      0.45         0.31
  YS02001622YS02001625        0.33      0.33      0.47      0.01         0.01
  YS02001625YS02001629        0.28      0.28      0.47      0.01         0.01
  YS02001629YS02163301        0.45      0.45      0.46      0.23         0.21
  YS02001633YS02163601        0.47      0.47      0.50      0.33         0.32
  YS02001641YS02001644        0.36      0.40      0.36      1.01         0.36
  YS02001644YS02001647        0.19      0.19      0.36      0.05         0.01
  YS02001647YS02001649        0.19      0.19      0.25      0.01         0.01
  YS02001649YS02001757        0.24      0.25      0.25      0.23         0.17
  YS02001652YS02001649        0.15      0.15      0.25      0.01         0.01
  YS02001655YS02001652        0.06      0.06      0.13      0.01         0.01
  YS02001658YS02001655        0.01      0.01      0.06      0.01         0.01
  YS02001661YS02001658        0.01      0.01      0.01      0.01         0.01
  YS02001748YS02001751        0.01      0.01      0.02      0.01         0.01
  YS02001751YS02001754        0.02      0.02      0.07      0.01         0.01
  YS02001754YS02001757        0.08      0.08      0.25      0.01         0.01
  YS02001757CaochengTiaoxuchi        0.14      0.25      0.62      0.21         0.05
  YS02001759YS02001757        0.20      0.20      0.25      0.01         0.01
  YS02001762YS02001759        0.18      0.18      0.20      0.01         0.01
  YS02001765YS02001762        0.15      0.15      0.18      0.01         0.01
  YS02001767YS02001765        0.13      0.13      0.15      0.01         0.01
  YS02001770YS02001767        0.13      0.14      0.13      0.30         0.11
  YS02001774YS02001770        0.12      0.12      0.17      0.01         0.01
  YS02001779YS02001774        0.08      0.08      0.17      0.01         0.01
  YS02001783YS02001784        0.24      0.26      0.24      0.38         0.24
  YS02001784YS02001785        0.16      0.24      0.16      0.53         0.16
  YS02001786YS02001788        0.01      0.16      0.01      0.45         0.01
  YS02001790YS02001791        0.01      0.01      0.01      0.24         0.01
  YS02001793JiankangQianchi        0.01      0.01      5.83      0.01         0.01
  YS02001882YS02001884        0.22      0.22      0.23      0.01         0.01
  YS02001884YS02001887        0.25      0.25      0.26      0.01         0.01
  YS02001887YS02001890        0.27      0.27      0.28      0.01         0.01
  YS02001890YS02001895        0.21      0.21      0.29      0.01         0.01
  YS02001895YS02001898        0.21      0.21      0.21      0.01         0.01
  YS02001898YS02001901        0.22      0.22      0.25      0.01         0.01
  YS02001901YS02001904        0.24      0.24      0.25      0.01         0.01
  YS02001904YS02001907        0.24      0.24      0.44      0.01         0.01
  YS02001907YS02006553        0.54      0.54      0.58      0.01         0.01
  YS02001910YS02001907        0.29      0.29      0.43      0.01         0.01
  YS02001915YS02001910        0.22      0.22      0.29      0.01         0.01
  YS02001918YS02001915        0.16      0.16      0.22      0.01         0.01
  YS02001920YS02001918        0.16      0.16      0.17      0.01         0.01
  YS02001923YS02001920        0.11      0.11      0.17      0.01         0.01
  YS02001926YS02001923        0.01      0.01      0.01      0.01         0.01
  YS02001929YS02001926        0.01      0.01      0.01      0.01         0.01
  YS02006553YS02006556        0.36      0.36      0.44      0.01         0.01
  YS02006556YS02006558        0.40      0.40      0.46      0.01         0.01
  YS02006558YS02006561        0.18      0.35      0.18      0.50         0.18
  YS02006561YS02001783        0.12      0.12      0.26      0.01         0.01
  YS02163301YS02001633        0.46      0.46      0.49      0.01         0.01
  YS02163601YS02164001        0.41      0.41      0.50      0.17         0.01
  YS02164001YS02001641        0.40      0.41      0.40      0.54         0.39
  YSB1154YSB6556              0.44      0.44      0.54      0.01         0.01
  YSB1171HS02004479           0.36      0.36      0.54      0.01         0.01
  YSB1174YSB1171              0.49      0.49      0.73      0.01         0.01
  YSB6556YSB1171              0.44      0.44      0.86      0.01         0.01
  
  
  ***************
  Pumping Summary
  ***************
  
  ---------------------------------------------------------------------------------------------------------
                                                  Min       Avg       Max     Total     Power    % Time Off
                        Percent   Number of      Flow      Flow      Flow    Volume     Usage    Pump Curve
  Pump                 Utilized   Start-Ups       LPS       LPS       LPS  10^6 ltr     Kw-hr    Low   High
  ---------------------------------------------------------------------------------------------------------
  CC-R1                   14.72          26      0.00    683.00    683.00     2.896     50.39    0.0   60.4
  CC-R2                   15.30          30      0.00    683.00    683.00     3.010     51.86    0.0   68.7
  CC-S1                   16.84          23      0.00    200.00    200.00     0.970      6.91    0.0    0.0
  CC-S2                   15.75          23      0.00    200.00    200.00     0.907      6.47    0.0    0.0
  JK-R1                    4.53          15      0.00   1000.00   1000.00     1.305     11.80    0.0    0.0
  JK-R2                    2.61          13      0.00   1000.00   1000.00     0.752      6.06    0.0    0.0
  JK-S                     7.13          39      0.00    300.00    300.00     0.616     11.21    0.0    0.0
  XR-1                    97.91           2      0.00     95.00     95.00     2.679      9.62    0.0    0.0
  XR-2                    93.94           2      0.00     95.00     95.00     2.570      8.78    0.0    0.0
  XR-3                     0.00           1      0.00     95.00     95.00     0.000      0.00    0.0    0.0
  XR-4                     0.00           1      0.00     95.00     95.00     0.000      0.00    0.0    0.0
  

  Analysis begun on:  Sat Jun 17 02:03:02 2023
  Analysis ended on:  Sat Jun 17 02:03:13 2023
  Total elapsed time: 00:00:11