
  OWA STORM WATER MANAGEMENT MODEL - VERSION v5.1.14 (OWA 2022-07-31)
  --------------------------------------------------------------

  WARNING 04: minimum elevation drop used for Conduit WS02004404WS02004405
  WARNING 03: negative offset ignored for Link YS02001904YS02001907
  
  *********************************************************
  NOTE: The summary statistics displayed in this report are
  based on results found at every computational time step,  
  not just on results from each reporting time step.
  *********************************************************
  
  ****************
  Analysis Options
  ****************
  Flow Units ............... LPS
  Process Models:
    Rainfall/Runoff ........ YES
    RDII ................... NO
    Snowmelt ............... NO
    Groundwater ............ NO
    Flow Routing ........... YES
    Ponding Allowed ........ NO
    Water Quality .......... NO
  Infiltration Method ...... HORTON
  Flow Routing Method ...... DYNWAVE
  Surcharge Method ......... EXTRAN
  Starting Date ............ 08/28/2015 08:00:00
  Ending Date .............. 08/28/2015 16:00:00
  Antecedent Dry Days ...... 8.0
  Report Time Step ......... 00:01:00
  Wet Time Step ............ 00:01:00
  Dry Time Step ............ 00:01:00
  Routing Time Step ........ 30.00 sec
  Variable Time Step ....... YES
  Maximum Trials ........... 8
  Number of Threads ........ 1
  Head Tolerance ........... 0.001500 m
  
  
  **************************        Volume         Depth
  Runoff Quantity Continuity     hectare-m            mm
  **************************     ---------       -------
  Initial LID Storage ......         0.072         1.184
  Total Precipitation ......         3.478        57.413
  Evaporation Loss .........         0.000         0.000
  Infiltration Loss ........         0.203         3.347
  Surface Runoff ...........         2.642        43.613
  Final Storage ............         0.706        11.657
  Continuity Error (%) .....        -0.035
  
  
  **************************        Volume        Volume
  Flow Routing Continuity        hectare-m      10^6 ltr
  **************************     ---------     ---------
  Dry Weather Inflow .......         0.630         6.296
  Wet Weather Inflow .......         2.642        26.419
  Groundwater Inflow .......         0.000         0.000
  RDII Inflow ..............         0.000         0.000
  External Inflow ..........         0.105         1.045
  External Outflow .........         2.415        24.146
  Flooding Loss ............         0.953         9.533
  Evaporation Loss .........         0.000         0.000
  Exfiltration Loss ........         0.000         0.000
  Initial Stored Volume ....         0.303         3.031
  Final Stored Volume ......         0.321         3.209
  Continuity Error (%) .....        -0.264
  
  
  *************************
  Highest Continuity Errors
  *************************
  Node WS02006256 (-9.64%)
  Node YS02001884 (5.08%)
  Node YS02001583 (-3.93%)
  Node YS02001774 (1.84%)
  Node HS02004842 (1.75%)
  
  
  ***************************
  Time-Step Critical Elements
  ***************************
  Link WS02006280WS02006229 (50.30%)
  Link WS02006252WS02006251 (17.44%)
  Link WS02006238WS02006235 (9.61%)
  Link YS02001791YS02001793 (5.85%)
  Link WS02004404WS02004405 (4.97%)
  
  
  ********************************
  Highest Flow Instability Indexes
  ********************************
  Link WS02006113WS02006111 (22)
  Link WS02004404WS02004405 (21)
  Link WS02006238WS02006235 (19)
  Link WS02006252WS02006251 (19)
  Link WS02006256WS02006235 (19)
  
  
  *************************
  Routing Time Step Summary
  *************************
  Minimum Time Step           :     0.01 sec
  Average Time Step           :     2.48 sec
  Maximum Time Step           :     6.46 sec
  Percent in Steady State     :    -0.00
  Average Iterations per Step :     3.38
  Percent Not Converging      :    13.71
  
  
  ***************************
  Subcatchment Runoff Summary
  ***************************
  
  ------------------------------------------------------------------------------------------------------------------------------
                            Total      Total      Total      Total     Imperv       Perv      Total       Total     Peak  Runoff
                           Precip      Runon       Evap      Infil     Runoff     Runoff     Runoff      Runoff   Runoff   Coeff
  Subcatchment                 mm         mm         mm         mm         mm         mm         mm    10^6 ltr      LPS
  ------------------------------------------------------------------------------------------------------------------------------
  sub0                      57.41       0.00       0.00       1.00      52.14       3.02      55.16        0.04    29.55   0.961
  sub1                      57.41       0.00       0.00       1.51      44.68       4.15      48.83        0.32   184.15   0.851
  sub10                     57.41       0.00       0.00       0.97      41.88       2.77      44.64        0.49   289.26   0.778
  sub11                     57.41       0.00       0.00       0.88      38.92       2.58      41.50        0.48   298.06   0.723
  sub12                     57.41       0.00       0.00       1.55      39.57       4.51      44.08        0.39   252.60   0.768
  sub14                     57.41       0.00       0.00       0.96      36.86       2.78      39.63        0.38   230.64   0.690
  sub15                     57.41       0.00       0.00       4.33      33.14      10.22      43.36        0.75   408.99   0.755
  sub16                     57.41       0.00       0.00       4.61      32.32      11.70      44.02        0.46   276.52   0.767
  sub17                     57.41       0.00       0.00       4.93      35.67      12.27      47.94        0.41   240.76   0.835
  sub2                      57.41       0.00       0.00       6.81      32.66      12.87      45.53        0.42   194.29   0.793
  sub22                     57.41       0.00       0.00       7.66      30.93      16.25      47.18        2.98  1504.30   0.822
  sub23                     57.41       0.00       0.00       5.77      31.85      13.40      45.25        2.16  1184.78   0.788
  sub3                      57.41       0.00       0.00       7.28      32.34      12.22      44.56        1.00   419.06   0.776
  sub4                      57.41       0.00       0.00       1.64      44.00       3.95      47.94        1.00   454.59   0.835
  sub5                      57.41       0.00       0.00       0.86      43.23       2.47      45.70        0.52   298.19   0.796
  sub60                     57.41       0.00       0.00       1.38      38.06       3.94      42.01        0.55   344.15   0.732
  sub61                     57.41       0.00       0.00       2.11      38.03       5.87      43.90        0.81   502.00   0.765
  sub62                     57.41       0.00       0.00       0.94      40.54       2.68      43.22        1.18   691.54   0.753
  sub63                     57.41       0.00       0.00       3.86      32.57       9.77      42.34        0.96   568.40   0.738
  sub64                     57.41       0.00       0.00       1.85      37.09       4.86      41.94        1.01   562.22   0.731
  sub65                     57.41       0.00       0.00       1.70      40.03       4.43      44.46        1.22   658.10   0.774
  sub66                     57.41       0.00       0.00       4.48      31.49       8.72      40.21        1.87   851.21   0.700
  sub67                     57.41       0.00       0.00       0.93      41.57       2.77      44.34        0.82   533.80   0.772
  sub68                     57.41       0.00       0.00       1.62      36.71       4.50      41.21        1.13   687.56   0.718
  sub69                     57.41       0.00       0.00       1.48      38.59       5.35      43.94        1.63   852.21   0.765
  sub7                      57.41       0.00       0.00       1.02      39.51       2.98      42.49        0.14    89.70   0.740
  sub70                     57.41       0.00       0.00       4.92      30.91      11.06      41.97        1.21   494.17   0.731
  sub71                     57.41       0.00       0.00       0.86      36.83       2.42      39.25        1.03   569.61   0.684
  sub72                     57.41       0.00       0.00       0.82      39.78       2.25      42.03        0.58   295.02   0.732
  sub8                      57.41       0.00       0.00       1.00      38.39       2.89      41.28        0.26   161.97   0.719
  sub9                      57.41       0.00       0.00       0.97      37.22       2.80      40.02        0.19   118.04   0.697
  

  ***********************
  LID Performance Summary
  ***********************

  --------------------------------------------------------------------------------------------------------------------
                                         Total      Evap     Infil   Surface    Drain    Initial     Final  Continuity
                                        Inflow      Loss      Loss   Outflow   Outflow   Storage   Storage       Error
  Subcatchment      LID Control             mm        mm        mm        mm        mm        mm        mm           %
  --------------------------------------------------------------------------------------------------------------------
  sub1              GreenRoof            57.41      0.00      0.00      0.00      0.00      7.05     64.53       -0.11
  sub10             GreenRoof            57.41      0.00      0.00      0.00      0.00      7.05     64.53       -0.11
  sub11             GreenRoof            57.41      0.00      0.00      0.00      0.00      7.05     64.53       -0.11
  sub12             GreenRoof            57.41      0.00      0.00      0.00      0.00      7.05     64.53       -0.11
  sub14             GreenRoof            57.41      0.00      0.00      0.00      0.00      7.05     64.53       -0.11
  sub15             GreenRoof            57.41      0.00      0.00      0.00      0.00      7.05     64.53       -0.11
  sub16             GreenRoof            57.41      0.00      0.00      0.00      0.00      7.05     64.53       -0.11
  sub17             GreenRoof            57.41      0.00      0.00      0.00      0.00      7.05     64.53       -0.11
  sub2              GreenRoof            57.41      0.00      0.00      0.00      0.00      7.05     64.53       -0.11
  sub22             GreenRoof            57.41      0.00      0.00      0.00      0.00      7.05     64.53       -0.11
  sub23             GreenRoof            57.41      0.00      0.00      0.00      0.00      7.05     64.53       -0.11
  sub3              GreenRoof            57.41      0.00      0.00      0.00      0.00      7.05     64.53       -0.11
  sub4              GreenRoof            57.41      0.00      0.00      0.00      0.00      7.05     64.53       -0.11
  sub5              GreenRoof            57.41      0.00      0.00      0.00      0.00      7.05     64.53       -0.11
  sub60             GreenRoof            57.41      0.00      0.00      0.00      0.00      7.05     64.53       -0.11
  sub61             GreenRoof            57.41      0.00      0.00      0.00      0.00      7.05     64.53       -0.11
  sub62             GreenRoof            57.41      0.00      0.00      0.00      0.00      7.05     64.53       -0.11
  sub63             GreenRoof            57.41      0.00      0.00      0.00      0.00      7.05     64.53       -0.11
  sub64             GreenRoof            57.41      0.00      0.00      0.00      0.00      7.05     64.53       -0.11
  sub65             GreenRoof            57.41      0.00      0.00      0.00      0.00      7.05     64.53       -0.11
  sub66             GreenRoof            57.41      0.00      0.00      0.00      0.00      7.05     64.53       -0.11
  sub67             GreenRoof            57.41      0.00      0.00      0.00      0.00      7.05     64.53       -0.11
  sub68             GreenRoof            57.41      0.00      0.00      0.00      0.00      7.05     64.53       -0.11
  sub69             GreenRoof            57.41      0.00      0.00      0.00      0.00      7.05     64.53       -0.11
  sub7              GreenRoof            57.41      0.00      0.00      0.00      0.00      7.05     64.53       -0.11
  sub70             GreenRoof            57.41      0.00      0.00      0.00      0.00      7.05     64.53       -0.11
  sub71             GreenRoof            57.41      0.00      0.00      0.00      0.00      7.05     64.53       -0.11
  sub72             GreenRoof            57.41      0.00      0.00      0.00      0.00      7.05     64.53       -0.11
  sub8              GreenRoof            57.41      0.00      0.00      0.00      0.00      7.05     64.53       -0.11
  sub9              GreenRoof            57.41      0.00      0.00      0.00      0.00      7.05     64.53       -0.11
  
  ******************
  Node Depth Summary
  ******************
  
  ---------------------------------------------------------------------------------
                                 Average  Maximum  Maximum  Time of Max    Reported
                                   Depth    Depth      HGL   Occurrence   Max Depth
  Node                 Type       Meters   Meters   Meters  days hr:min      Meters
  ---------------------------------------------------------------------------------
  HS02004478           JUNCTION     0.22     1.57    10.80     0  01:59        1.54
  HS02004479           JUNCTION     0.30     1.69    10.89     0  01:59        1.67
  HS02004480           JUNCTION     0.27     1.66    10.90     0  01:59        1.63
  HS02004770           JUNCTION     0.27     1.42    11.25     0  01:56        1.42
  HS02004777           JUNCTION     0.30     1.48    11.28     0  01:56        1.45
  HS02004785           JUNCTION     0.19     1.49    11.39     0  01:56        1.34
  HS02004788           JUNCTION     0.15     1.42    11.32     0  01:56        1.32
  HS02004792           JUNCTION     0.21     1.60    11.12     0  01:56        1.60
  HS02004799           JUNCTION     0.33     1.76    10.97     0  01:59        1.76
  HS02004802           JUNCTION     0.32     1.79    10.92     0  01:59        1.69
  HS02004807           JUNCTION     0.29     1.92    11.09     0  01:59        1.74
  HS02004817           JUNCTION     0.59     2.40    11.25     0  01:59        2.10
  HS02004824           JUNCTION     0.16     1.97    11.38     0  01:59        1.60
  HS02004830           JUNCTION     0.16     1.99    11.46     0  01:59        1.55
  HS02004837           JUNCTION     0.13     1.92    11.50     0  01:59        1.45
  HS02004842           JUNCTION     0.42     2.22    11.49     0  01:59        1.76
  HS02004848           JUNCTION     0.11     2.01    11.61     0  01:59        1.43
  HS02004852           JUNCTION     0.11     2.12    11.63     0  01:59        1.48
  HS02004856           JUNCTION     0.17     2.07    11.50     0  01:59        1.53
  HS02004862           JUNCTION     0.13     2.00    11.38     0  01:59        1.52
  HS02004870           JUNCTION     0.12     2.01    11.30     0  01:59        1.54
  HS02004876           JUNCTION     0.17     1.98    11.01     0  01:59        1.65
  HS02004881           JUNCTION     0.11     2.15    11.18     0  01:59        1.46
  HS02004901           JUNCTION     0.28     1.42    11.24     0  01:56        1.42
  WS02001211           JUNCTION     0.63     0.81     5.64     0  02:05        0.81
  WS02001212           JUNCTION     0.38     0.57     5.63     0  02:06        0.57
  WS02001213           JUNCTION     0.59     0.86     5.63     0  02:06        0.86
  WS02003059           JUNCTION     0.66     0.93     5.62     0  02:05        0.93
  WS02003060           JUNCTION     0.39     0.68     5.61     0  02:04        0.68
  WS02003066           JUNCTION     0.23     0.45     6.01     0  02:02        0.45
  WS02003067           JUNCTION     0.55     0.88     6.20     0  02:02        0.88
  WS02003069           JUNCTION     0.43     0.77     5.36     0  02:05        0.77
  WS02003072           JUNCTION     0.49     0.81     5.18     0  02:05        0.81
  WS02003073           JUNCTION     0.30     0.51     4.58     0  02:06        0.51
  WS02004138           JUNCTION     0.13     0.14     7.39     0  00:29        0.14
  WS02004139           JUNCTION     0.57     0.74     5.65     0  02:04        0.74
  WS02004401           JUNCTION     0.77     1.87     7.87     0  02:13        1.81
  WS02004402           JUNCTION     0.78     1.82     7.78     0  02:13        1.75
  WS02004403           JUNCTION     0.79     1.74     7.67     0  02:13        1.69
  WS02004404           JUNCTION     0.85     1.74     7.59     0  02:13        1.69
  WS02004405           JUNCTION     0.84     1.68     7.53     0  02:13        1.64
  WS02004406           JUNCTION     0.83     1.54     7.37     0  02:02        1.53
  WS02004407           JUNCTION     0.26     0.89     7.21     0  02:02        0.89
  WS02004409           JUNCTION     0.54     1.37     7.14     0  02:02        1.36
  WS02004410           JUNCTION     0.54     1.28     7.00     0  02:02        1.27
  WS02004411           JUNCTION     0.55     1.19     6.87     0  02:02        1.19
  WS02004412           JUNCTION     0.55     1.10     6.74     0  02:02        1.09
  WS02004413           JUNCTION     0.69     1.14     6.61     0  02:02        1.14
  WS02006109           JUNCTION     0.98     2.64     9.26     0  01:56        2.64
  WS02006110           JUNCTION     0.91     2.41     8.99     0  02:13        2.41
  WS02006111           JUNCTION     0.42     1.70     8.41     0  02:13        1.69
  WS02006112           JUNCTION     0.98     2.32     8.20     0  02:13        2.32
  WS02006113           JUNCTION     0.50     1.80     8.69     0  02:13        1.79
  WS02006115           JUNCTION     0.69     1.94     8.08     0  02:13        1.91
  WS02006116           JUNCTION     0.76     1.95     7.99     0  02:13        1.89
  WS02006228           JUNCTION     1.03     3.03     9.68     0  01:59        3.03
  WS02006229           JUNCTION     1.04     3.23     9.92     0  01:59        3.20
  WS02006230           JUNCTION     0.97     2.65     9.39     0  01:53        2.65
  WS02006231           JUNCTION     0.70     2.24     9.36     0  02:13        2.24
  WS02006232           JUNCTION     0.79     2.18     9.22     0  01:53        2.18
  WS02006234           JUNCTION     0.67     1.96     9.12     0  01:53        1.96
  WS02006235           JUNCTION     0.68     1.92     9.09     0  02:13        1.91
  WS02006238           JUNCTION     0.70     1.93     9.07     0  02:13        1.92
  WS02006239           JUNCTION     0.64     2.03     9.24     0  02:13        2.03
  WS02006240           JUNCTION     0.59     1.97     9.26     0  02:13        1.97
  WS02006242           JUNCTION     0.63     1.55     8.82     0  01:51        1.55
  WS02006243           JUNCTION     0.52     1.39     8.81     0  02:57        1.39
  WS02006245           JUNCTION     0.50     1.36     8.84     0  02:57        1.36
  WS02006247           JUNCTION     0.50     1.31     8.81     0  02:57        1.31
  WS02006248           JUNCTION     0.45     1.10     8.69     0  01:48        1.10
  WS02006249           JUNCTION     0.47     1.09     8.69     0  01:48        1.09
  WS02006251           JUNCTION     0.56     2.21     9.88     0  01:59        2.09
  WS02006252           JUNCTION     0.37     1.50     9.74     0  00:00        1.50
  WS02006253           JUNCTION     0.62     3.52    11.16     0  01:59        2.77
  WS02006256           JUNCTION     0.97     2.35     9.28     0  00:00        2.35
  WS02006280           JUNCTION     0.29     1.75    10.02     0  01:59        1.71
  WS02006284           JUNCTION     0.56     1.94    10.34     0  01:59        1.91
  WS02006287           JUNCTION     0.29     1.73    10.68     0  01:59        1.68
  WSF200               JUNCTION     0.23     0.51     5.75     0  02:04        0.51
  YS02001580           JUNCTION     0.07     1.05     9.59     0  01:56        1.05
  YS02001583           JUNCTION     0.10     1.10     9.60     0  01:56        0.82
  YS02001586           JUNCTION     0.17     1.13     9.30     0  01:56        1.13
  YS02001590           JUNCTION     0.27     1.38     9.24     0  01:56        1.37
  YS02001593           JUNCTION     0.20     1.46     9.32     0  02:13        1.46
  YS02001596           JUNCTION     0.27     1.80     9.22     0  02:13        1.80
  YS02001600           JUNCTION     0.34     1.87     9.00     0  01:56        1.87
  YS02001601           JUNCTION     0.54     2.06     8.90     0  01:56        2.06
  YS02001602           JUNCTION     0.45     1.87     8.77     0  01:56        1.87
  YS02001605           JUNCTION     0.42     1.78     8.68     0  02:13        1.78
  YS02001607           JUNCTION     0.41     1.68     8.53     0  02:13        1.68
  YS02001610           JUNCTION     0.45     1.68     8.48     0  01:56        1.68
  YS02001613           JUNCTION     0.41     1.67     8.51     0  02:13        1.67
  YS02001616           JUNCTION     0.34     1.61     8.52     0  02:13        1.60
  YS02001619           JUNCTION     0.32     1.58     8.51     0  02:15        1.58
  YS02001622           JUNCTION     0.31     1.57     8.47     0  02:15        1.57
  YS02001625           JUNCTION     0.57     1.78     8.38     0  01:56        1.78
  YS02001629           JUNCTION     0.43     1.85     8.40     0  01:56        1.85
  YS02001633           JUNCTION     0.51     2.08     8.53     0  02:13        2.08
  YS02001641           JUNCTION     0.49     1.95     8.38     0  02:01        1.93
  YS02001644           JUNCTION     0.48     1.92     8.35     0  02:01        1.92
  YS02001647           JUNCTION     0.26     1.75     8.36     0  02:01        1.65
  YS02001649           JUNCTION     0.30     1.89     8.28     0  02:01        1.78
  YS02001652           JUNCTION     0.19     1.79     8.38     0  02:01        1.60
  YS02001655           JUNCTION     0.13     1.84     8.69     0  02:01        1.38
  YS02001658           JUNCTION     0.09     1.81     8.95     0  02:01        1.12
  YS02001661           JUNCTION     0.13     0.93     8.33     0  02:02        0.88
  YS02001664           JUNCTION     0.05     0.29     8.22     0  02:02        0.29
  YS02001745           JUNCTION     0.05     0.65     8.17     0  02:02        0.56
  YS02001748           JUNCTION     0.08     1.43     8.51     0  02:02        0.95
  YS02001751           JUNCTION     0.11     1.42     8.30     0  02:02        1.14
  YS02001754           JUNCTION     0.16     1.58     8.19     0  02:02        1.40
  YS02001757           JUNCTION     0.31     1.84     8.10     0  02:02        1.75
  YS02001759           JUNCTION     0.25     1.80     8.16     0  02:02        1.71
  YS02001762           JUNCTION     0.24     1.80     8.20     0  02:02        1.70
  YS02001765           JUNCTION     0.23     1.77     8.22     0  02:02        1.67
  YS02001767           JUNCTION     0.22     1.77     8.26     0  02:02        1.67
  YS02001770           JUNCTION     0.24     1.83     8.33     0  02:02        1.71
  YS02001774           JUNCTION     0.30     1.91     8.33     0  02:02        1.78
  YS02001779           JUNCTION     0.14     1.68     8.37     0  02:00        1.52
  YS02001783           JUNCTION     0.22     1.35     7.49     0  02:00        1.23
  YS02001784           JUNCTION     0.24     1.23     7.30     0  02:13        1.23
  YS02001786           JUNCTION     0.21     0.93     6.96     0  02:00        0.87
  YS02001788           JUNCTION     0.15     0.62     6.60     0  02:00        0.62
  YS02001790           JUNCTION     0.18     0.72     6.37     0  02:01        0.72
  YS02001791           JUNCTION     0.11     0.44     5.91     0  02:02        0.43
  YS02001793           JUNCTION     0.06     0.24     5.07     0  02:12        0.22
  YS02001882           JUNCTION     0.28     1.83     8.55     0  02:13        1.83
  YS02001884           JUNCTION     0.37     1.93     8.55     0  02:13        1.93
  YS02001887           JUNCTION     0.44     1.94     8.48     0  02:13        1.94
  YS02001890           JUNCTION     0.47     1.81     8.32     0  01:59        1.81
  YS02001895           JUNCTION     0.25     1.73     8.48     0  02:13        1.73
  YS02001898           JUNCTION     0.26     1.66     8.40     0  02:13        1.66
  YS02001901           JUNCTION     0.37     1.87     8.48     0  02:13        1.87
  YS02001904           JUNCTION     0.35     1.65     8.28     0  02:00        1.65
  YS02001907           JUNCTION     0.66     1.96     8.25     0  02:00        1.96
  YS02001910           JUNCTION     0.46     1.98     8.48     0  02:00        1.80
  YS02001915           JUNCTION     0.28     1.93     8.65     0  02:00        1.62
  YS02001918           JUNCTION     0.13     1.81     8.88     0  02:00        1.30
  YS02001920           JUNCTION     0.21     2.14     9.15     0  02:00        1.43
  YS02001923           JUNCTION     0.10     2.03     9.29     0  02:00        1.33
  YS02001926           JUNCTION     0.14     1.90     9.35     0  02:00        1.19
  YS02001929           JUNCTION     0.07     1.78     9.47     0  02:00        1.02
  YS02006553           JUNCTION     0.66     1.99     8.28     0  02:00        1.97
  YS02006556           JUNCTION     0.64     1.99     8.30     0  02:00        1.94
  YS02006558           JUNCTION     0.68     2.03     8.30     0  02:00        1.98
  YS02006561           JUNCTION     0.14     1.04     7.70     0  02:00        0.88
  YS02163301           JUNCTION     0.45     2.01     8.53     0  02:13        2.01
  YS02163601           JUNCTION     0.54     2.03     8.43     0  02:01        2.01
  YS02164001           JUNCTION     0.47     1.95     8.41     0  02:01        1.93
  YSB1154              JUNCTION     0.44     1.88    10.93     0  02:01        1.88
  YSB1171              JUNCTION     0.58     1.95    10.85     0  01:59        1.95
  YSB1174              JUNCTION     0.39     1.79    10.90     0  02:00        1.79
  YSB6556              JUNCTION     0.34     1.72    10.89     0  02:01        1.72
  CC-1                 OUTFALL      0.00     0.00     0.00     0  00:00        0.00
  CC-2                 OUTFALL      0.00     0.00     0.00     0  00:00        0.00
  JK-1                 OUTFALL      0.00     0.00     0.00     0  00:00        0.00
  JK-2                 OUTFALL      0.00     0.00     0.00     0  00:00        0.00
  WSC                  OUTFALL      0.29     0.51     1.18     0  02:06        0.51
  CC-storage           STORAGE      0.73     1.43     6.93     0  02:25        1.43
  JK-storage           STORAGE      1.54     3.98     4.78     0  02:17        3.98
  XR-storage           STORAGE      7.85     9.26     7.26     0  08:00        9.26
  
  
  *******************
  Node Inflow Summary
  *******************
  
  -------------------------------------------------------------------------------------------------
                                  Maximum  Maximum                  Lateral       Total        Flow
                                  Lateral    Total  Time of Max      Inflow      Inflow     Balance
                                   Inflow   Inflow   Occurrence      Volume      Volume       Error
  Node                 Type           LPS      LPS  days hr:min    10^6 ltr    10^6 ltr     Percent
  -------------------------------------------------------------------------------------------------
  HS02004478           JUNCTION      0.00  2262.52     0  02:02           0        7.82      -0.003
  HS02004479           JUNCTION      0.00   465.62     0  01:59           0       0.758       0.130
  HS02004480           JUNCTION      0.00  2123.30     0  01:57           0        6.09       0.047
  HS02004770           JUNCTION   1184.78  1184.78     0  02:02        2.16        2.39       0.129
  HS02004777           JUNCTION      0.03   755.27     0  01:56    0.000864        1.82       0.283
  HS02004785           JUNCTION      0.15   773.14     0  01:56     0.00432        1.82       0.035
  HS02004788           JUNCTION    410.66   860.14     0  01:56       0.794        2.61      -0.011
  HS02004792           JUNCTION   1504.58  2242.52     0  02:02        2.99         5.6       0.005
  HS02004799           JUNCTION    230.64  1775.25     0  01:57       0.377        5.36       0.055
  HS02004802           JUNCTION      0.00   842.14     0  02:02           0        1.76       0.237
  HS02004807           JUNCTION    298.06   842.38     0  02:03       0.482        1.81       0.240
  HS02004817           JUNCTION      0.60   556.82     0  02:03      0.0173        1.39       1.232
  HS02004824           JUNCTION    454.64   658.02     0  01:57           1        1.58       0.053
  HS02004830           JUNCTION      0.15   653.69     0  01:57     0.00432       0.788       0.200
  HS02004837           JUNCTION    295.61   849.65     0  01:57       0.675        1.11       0.072
  HS02004842           JUNCTION      0.00   845.04     0  01:57           0       0.751       1.786
  HS02004848           JUNCTION    419.06  1094.02     0  01:59           1        1.58       0.002
  HS02004852           JUNCTION      0.00  1089.90     0  01:59           0        1.42       0.007
  HS02004856           JUNCTION    118.04  1193.10     0  01:59       0.192        1.61       0.051
  HS02004862           JUNCTION    194.49  1289.78     0  01:59        0.43        2.04      -0.010
  HS02004870           JUNCTION    161.97  1356.03     0  01:59       0.264         2.3       0.012
  HS02004876           JUNCTION    184.15  1403.43     0  01:59       0.325        2.63       0.031
  HS02004881           JUNCTION     89.70  1460.14     0  02:00       0.143        2.77       0.013
  HS02004901           JUNCTION    276.52   510.36     0  02:03       0.461       0.689       0.261
  WS02001211           JUNCTION      7.35   203.24     0  01:54       0.212        5.44       0.612
  WS02001212           JUNCTION      0.00   208.20     0  02:40           0        5.41       0.290
  WS02001213           JUNCTION      0.00   211.78     0  02:39           0        5.39       0.332
  WS02003059           JUNCTION      0.00   216.03     0  02:39           0        5.38       0.596
  WS02003060           JUNCTION     16.53  1485.83     0  02:05       0.476        13.5       0.110
  WS02003066           JUNCTION      0.00  1283.27     0  02:02           0        7.69       0.020
  WS02003067           JUNCTION      0.00  1282.57     0  02:02           0         7.7       0.059
  WS02003069           JUNCTION      0.32  1485.52     0  02:04     0.00922        13.5       0.116
  WS02003072           JUNCTION      0.00  1485.36     0  02:06           0        13.5       0.157
  WS02003073           JUNCTION      1.82  1487.33     0  02:06      0.0524        13.5       0.163
  WS02004138           JUNCTION      0.00   380.00     0  00:00           0        5.25       0.054
  WS02004139           JUNCTION      0.32   191.10     0  00:29     0.00924        5.26       0.508
  WS02004401           JUNCTION      0.00  1282.69     0  02:02           0        7.81       0.140
  WS02004402           JUNCTION      0.00  1283.13     0  02:02           0         7.8       0.141
  WS02004403           JUNCTION      0.00  1283.43     0  02:02           0        7.79       0.136
  WS02004404           JUNCTION      0.16  1283.79     0  02:01     0.00467        7.78       0.116
  WS02004405           JUNCTION      0.04  1284.60     0  02:01      0.0011        7.77       0.163
  WS02004406           JUNCTION      0.00  1284.42     0  02:01           0        7.76       0.279
  WS02004407           JUNCTION      0.00  1284.85     0  02:01           0        7.74       0.022
  WS02004409           JUNCTION      0.00  1282.87     0  02:02           0        7.74       0.043
  WS02004410           JUNCTION      0.00  1282.81     0  02:02           0        7.73       0.067
  WS02004411           JUNCTION      0.00  1282.62     0  02:02           0        7.73       0.083
  WS02004412           JUNCTION      0.00  1282.69     0  02:02           0        7.72       0.107
  WS02004413           JUNCTION      0.00  1282.55     0  02:02           0        7.71       0.185
  WS02006109           JUNCTION      1.23  1268.38     0  02:02      0.0354         7.6       0.138
  WS02006110           JUNCTION      0.00  1143.69     0  02:13           0        7.44       0.111
  WS02006111           JUNCTION      0.00  1135.95     0  02:13           0        7.43       0.014
  WS02006112           JUNCTION    240.76  1282.28     0  02:02       0.411        7.84       0.245
  WS02006113           JUNCTION      0.00  1141.71     0  02:13           0        7.43       0.029
  WS02006115           JUNCTION      0.00  1282.11     0  02:01           0        7.82       0.090
  WS02006116           JUNCTION      0.00  1282.34     0  02:01           0        7.81       0.072
  WS02006228           JUNCTION      0.00  1267.43     0  02:02           0        7.57       0.070
  WS02006229           JUNCTION      0.00  2263.54     0  02:02           0        9.53       0.087
  WS02006230           JUNCTION     10.28  1005.02     0  02:02       0.296        3.72       0.263
  WS02006231           JUNCTION      0.00   465.46     0  03:10           0        2.71      -0.192
  WS02006232           JUNCTION      0.00   463.92     0  03:10           0        2.69       0.266
  WS02006234           JUNCTION      0.00   459.97     0  03:10           0        2.67      -0.377
  WS02006235           JUNCTION      0.00   495.82     0  03:35           0        2.65       0.485
  WS02006238           JUNCTION      0.00   409.58     0  02:13           0        2.44      -0.069
  WS02006239           JUNCTION      0.00   400.98     0  02:22           0        2.38      -0.088
  WS02006240           JUNCTION      0.00   401.24     0  02:13           0        2.35       0.023
  WS02006242           JUNCTION      0.00   400.85     0  02:13           0        2.33      -0.023
  WS02006243           JUNCTION      0.00   397.21     0  03:20           0        2.03      -0.061
  WS02006245           JUNCTION      0.00   397.42     0  03:15           0        2.03       0.465
  WS02006247           JUNCTION      0.00   398.07     0  03:15           0        2.03      -0.006
  WS02006248           JUNCTION      0.00   398.17     0  03:15           0        2.22      -0.040
  WS02006249           JUNCTION      0.00  1329.59     0  02:01           0        4.91       0.150
  WS02006251           JUNCTION      0.08  1492.47     0  02:00     0.00222        4.95       0.018
  WS02006252           JUNCTION      0.00   400.00     0  00:00           0        2.31      -0.729
  WS02006253           JUNCTION     29.55  1490.08     0  02:00      0.0447        2.84      -0.001
  WS02006256           JUNCTION      0.00   300.00     0  00:00           0       0.289      -8.791
  WS02006280           JUNCTION      0.00  2261.80     0  02:02           0        7.81       0.016
  WS02006284           JUNCTION      0.10  2262.15     0  02:02     0.00275        7.81      -0.007
  WS02006287           JUNCTION      0.00  2261.85     0  02:02           0         7.8       0.013
  WSF200               JUNCTION      0.00  1283.44     0  02:02           0        7.69       0.011
  YS02001580           JUNCTION      0.00   117.26     0  01:56           0       0.004      -4.189
  YS02001583           JUNCTION      0.00   167.96     0  01:56           0      0.0151      -3.778
  YS02001586           JUNCTION    494.17   494.17     0  02:04        1.21        1.22       0.108
  YS02001590           JUNCTION      0.00   317.86     0  02:02           0         1.1      -0.041
  YS02001593           JUNCTION      0.00   317.95     0  02:06           0         1.1       0.012
  YS02001596           JUNCTION      0.00   317.88     0  02:08           0         1.1       0.010
  YS02001600           JUNCTION      0.00   317.99     0  02:04           0         1.1       0.005
  YS02001601           JUNCTION    852.21  1169.64     0  02:03        1.63        2.72       0.030
  YS02001602           JUNCTION      0.00   517.67     0  01:56           0        1.99       0.019
  YS02001605           JUNCTION      0.00   517.19     0  01:56           0        1.92       0.022
  YS02001607           JUNCTION      0.00   516.92     0  01:56           0        1.92       0.101
  YS02001610           JUNCTION      0.00   516.09     0  01:55           0        1.92       0.120
  YS02001613           JUNCTION      0.00   518.14     0  01:56           0        1.69       0.103
  YS02001616           JUNCTION      0.00   520.84     0  01:55           0        1.69       0.028
  YS02001619           JUNCTION    851.21   940.04     0  01:58        1.87        3.56       0.006
  YS02001622           JUNCTION      0.00   939.58     0  01:58           0        3.55       0.004
  YS02001625           JUNCTION      0.00   938.77     0  01:58           0        3.55       0.254
  YS02001629           JUNCTION      0.00   939.21     0  01:58           0        3.19       0.013
  YS02001633           JUNCTION    658.30  1419.73     0  01:59        1.23        4.41       0.079
  YS02001641           JUNCTION      0.00  1415.99     0  01:59           0        4.41       0.069
  YS02001644           JUNCTION    562.26  1843.92     0  01:59        1.01        5.41       0.064
  YS02001647           JUNCTION      0.00  1842.36     0  01:59           0         5.4       0.009
  YS02001649           JUNCTION      0.00  2128.60     0  01:59           0        6.37       0.005
  YS02001652           JUNCTION      0.00   642.20     0  02:03           0       0.967      -0.100
  YS02001655           JUNCTION      0.15   642.61     0  02:03     0.00443       0.966      -0.104
  YS02001658           JUNCTION      0.00   750.57     0  02:01           0       0.961      -0.037
  YS02001661           JUNCTION      0.00   579.74     0  02:02           0       0.961       0.035
  YS02001664           JUNCTION    568.40   568.40     0  02:02       0.961       0.961      -0.007
  YS02001745           JUNCTION    344.15   344.15     0  02:02       0.552       0.552       0.270
  YS02001748           JUNCTION      0.04   570.73     0  02:02      0.0013       0.552      -0.423
  YS02001751           JUNCTION      0.01   467.45     0  02:05    0.000317        0.56       0.084
  YS02001754           JUNCTION      0.26   415.30     0  02:04     0.00749       0.572      -0.356
  YS02001757           JUNCTION      0.00  3367.80     0  02:02           0        8.95       0.067
  YS02001759           JUNCTION    502.04  1218.80     0  02:00       0.807        2.01      -0.012
  YS02001762           JUNCTION      0.00   725.73     0  02:00           0         1.2       0.018
  YS02001765           JUNCTION      0.00   715.82     0  02:00           0         1.2       0.008
  YS02001767           JUNCTION      0.54   707.67     0  02:00      0.0154         1.2      -0.005
  YS02001770           JUNCTION    691.69   695.16     0  02:01        1.19        1.23      -0.008
  YS02001774           JUNCTION      0.00   336.69     0  02:00           0      0.0631       1.870
  YS02001779           JUNCTION      0.01   340.34     0  02:00    0.000144      0.0199      -3.695
  YS02001783           JUNCTION      0.00  1154.80     0  02:01           0        3.26       0.010
  YS02001784           JUNCTION      1.06  1155.68     0  02:01      0.0305        3.29       0.017
  YS02001786           JUNCTION      0.06  1156.59     0  02:01     0.00162        3.29       0.018
  YS02001788           JUNCTION      0.07  1157.49     0  02:01     0.00204        3.29       0.009
  YS02001790           JUNCTION      0.15  1166.72     0  02:00     0.00446         3.3       0.030
  YS02001791           JUNCTION      0.00  1280.06     0  02:03           0        3.29      -0.027
  YS02001793           JUNCTION      0.00  1233.39     0  02:02           0         3.3       0.006
  YS02001882           JUNCTION      0.00    53.96     0  01:58           0      0.0124       3.951
  YS02001884           JUNCTION      0.00    76.45     0  01:58           0      0.0483       5.357
  YS02001887           JUNCTION    534.25   537.14     0  02:01       0.838       0.871       0.504
  YS02001890           JUNCTION      0.00   537.69     0  02:01           0        0.83       0.606
  YS02001895           JUNCTION      0.00   506.87     0  02:02           0       0.819       0.174
  YS02001898           JUNCTION      0.00   507.36     0  02:02           0       0.818       0.011
  YS02001901           JUNCTION      0.00   507.80     0  02:02           0        0.82       0.387
  YS02001904           JUNCTION      0.00   507.78     0  02:02           0       0.825       0.344
  YS02001907           JUNCTION      0.00  1505.30     0  02:01           0         2.5       0.723
  YS02001910           JUNCTION      0.00  1013.52     0  02:01           0        1.68       0.435
  YS02001915           JUNCTION    569.63  1013.74     0  02:01        1.03        1.73       0.104
  YS02001918           JUNCTION      0.00   454.47     0  02:01           0        0.73       0.037
  YS02001920           JUNCTION      2.87   454.05     0  02:01      0.0827       0.713       0.116
  YS02001923           JUNCTION      0.04   419.91     0  02:00     0.00109       0.614      -0.219
  YS02001926           JUNCTION      0.05   670.22     0  02:00      0.0015       0.595      -0.121
  YS02001929           JUNCTION    295.02   547.93     0  02:00       0.578       0.581      -0.076
  YS02006553           JUNCTION      0.00   822.41     0  02:13           0        2.15       0.560
  YS02006556           JUNCTION      0.00   814.68     0  02:13           0        2.16       0.387
  YS02006558           JUNCTION    688.44  1156.29     0  02:00        1.16        3.29       0.109
  YS02006561           JUNCTION      0.00  1155.40     0  02:00           0        3.26       0.001
  YS02163301           JUNCTION      0.00   938.03     0  01:58           0        3.19       0.050
  YS02163601           JUNCTION      0.11  1418.11     0  01:59     0.00317        4.41       0.113
  YS02164001           JUNCTION      0.00  1416.55     0  01:59           0        4.41       0.063
  YSB1154              JUNCTION    298.19   298.19     0  02:02       0.518       0.519       0.289
  YSB1171              JUNCTION      0.00   548.06     0  02:02           0        0.91       0.721
  YSB1174              JUNCTION    252.60   252.60     0  02:01       0.385       0.386       0.352
  YSB6556              JUNCTION      0.00   298.10     0  02:02           0       0.519       0.273
  CC-1                 OUTFALL       0.00   683.00     0  00:00           0        5.55       0.000
  CC-2                 OUTFALL       0.00   683.00     0  00:00           0        1.96       0.000
  JK-1                 OUTFALL       0.00  1000.00     0  00:00           0      0.0528       0.000
  JK-2                 OUTFALL       0.00  1000.00     0  00:00           0        3.08       0.000
  WSC                  OUTFALL       0.00  1487.71     0  02:06           0        13.5       0.000
  CC-storage           STORAGE       0.00  3369.77     0  02:02           0        11.2      -0.279
  JK-storage           STORAGE       0.00  1231.06     0  02:04           0        3.45      -0.501
  XR-storage           STORAGE     200.00   200.00     0  00:00        5.76        6.36       0.001
  
  
  **********************
  Node Surcharge Summary
  **********************
  
  Surcharging occurs when water rises above the top of the highest conduit.
  ---------------------------------------------------------------------
                                               Max. Height   Min. Depth
                                   Hours       Above Crown    Below Rim
  Node                 Type      Surcharged         Meters       Meters
  ---------------------------------------------------------------------
  HS02004478           JUNCTION        0.39          0.652        0.288
  HS02004479           JUNCTION        0.51          0.887        0.163
  HS02004480           JUNCTION        0.56          0.953        0.147
  HS02004770           JUNCTION        0.47          0.720        0.000
  HS02004777           JUNCTION        0.47          0.780        0.000
  HS02004785           JUNCTION        0.42          0.790        0.000
  HS02004788           JUNCTION        0.41          0.720        0.000
  HS02004792           JUNCTION        0.53          0.900        0.000
  HS02004799           JUNCTION        0.64          1.060        0.000
  HS02004802           JUNCTION        0.56          1.081        0.129
  HS02004807           JUNCTION        0.54          1.220        0.000
  HS02004817           JUNCTION        1.14          1.698        0.042
  HS02004824           JUNCTION        0.41          1.275        0.035
  HS02004830           JUNCTION        0.38          1.288        0.042
  HS02004837           JUNCTION        0.34          1.224        0.116
  HS02004842           JUNCTION        0.47          1.520        0.000
  HS02004848           JUNCTION        0.30          1.310        0.060
  HS02004852           JUNCTION        0.33          1.420        0.000
  HS02004856           JUNCTION        0.31          1.300        0.000
  HS02004862           JUNCTION        0.34          1.300        0.000
  HS02004870           JUNCTION        0.36          1.311        0.089
  HS02004876           JUNCTION        0.44          1.280        0.280
  HS02004881           JUNCTION        0.41          1.450        0.000
  HS02004901           JUNCTION        0.47          0.720        0.000
  WS02004401           JUNCTION        1.50          0.872        0.788
  WS02004402           JUNCTION        1.51          0.818        0.922
  WS02004403           JUNCTION        1.51          0.739        1.291
  WS02004404           JUNCTION        1.64          0.740        2.040
  WS02004405           JUNCTION        1.62          0.680        2.120
  WS02004406           JUNCTION        1.59          0.542        1.908
  WS02004409           JUNCTION        0.85          0.368        1.992
  WS02004410           JUNCTION        0.81          0.280        2.260
  WS02004411           JUNCTION        0.75          0.190        2.340
  WS02004412           JUNCTION        0.67          0.095        2.215
  WS02004413           JUNCTION        1.20          0.139        2.061
  WS02006109           JUNCTION        1.99          1.820        0.000
  WS02006110           JUNCTION        1.71          1.499        0.351
  WS02006111           JUNCTION        1.11          0.889        0.981
  WS02006112           JUNCTION        1.77          1.321        0.359
  WS02006113           JUNCTION        1.14          1.000        0.930
  WS02006115           JUNCTION        1.37          0.934        1.316
  WS02006116           JUNCTION        1.39          0.890        1.400
  WS02006228           JUNCTION        1.99          2.199        0.001
  WS02006229           JUNCTION        0.79          1.046        0.024
  WS02006230           JUNCTION        1.63          1.570        0.000
  WS02006231           JUNCTION        1.64          1.530        0.000
  WS02006232           JUNCTION        1.79          1.480        0.000
  WS02006234           JUNCTION        1.65          1.240        0.000
  WS02006235           JUNCTION        1.69          1.211        0.079
  WS02006238           JUNCTION        1.71          1.207        0.223
  WS02006239           JUNCTION        1.64          1.290        0.000
  WS02006240           JUNCTION        1.63          1.258        0.132
  WS02006242           JUNCTION        1.66          0.820        0.000
  WS02006243           JUNCTION        1.60          0.681        0.089
  WS02006245           JUNCTION        1.59          0.649        0.201
  WS02006247           JUNCTION        1.59          0.596        0.164
  WS02006248           JUNCTION        1.57          0.380        0.000
  WS02006249           JUNCTION        1.57          0.390        0.000
  WS02006251           JUNCTION        1.52          1.180        0.000
  WS02006252           JUNCTION        1.67          1.100        0.000
  WS02006253           JUNCTION        1.53          2.480        0.000
  WS02006256           JUNCTION        6.99          2.050        0.000
  WS02006280           JUNCTION        0.66          0.695        0.085
  WS02006284           JUNCTION        0.58          0.660        0.140
  WS02006287           JUNCTION        0.49          0.729        0.161
  YS02001580           JUNCTION        0.43          0.450        0.000
  YS02001583           JUNCTION        0.44          0.460        0.040
  YS02001586           JUNCTION        0.55          0.510        0.000
  YS02001590           JUNCTION        0.62          0.734        0.016
  YS02001593           JUNCTION        0.62          0.840        0.000
  YS02001596           JUNCTION        0.72          1.070        0.000
  YS02001600           JUNCTION        0.87          1.190        0.000
  YS02001601           JUNCTION        1.30          1.440        0.000
  YS02001602           JUNCTION        1.14          1.270        0.000
  YS02001605           JUNCTION        1.07          1.180        0.000
  YS02001607           JUNCTION        0.58          0.680        0.000
  YS02001610           JUNCTION        0.60          0.680        0.000
  YS02001613           JUNCTION        0.57          0.673        0.027
  YS02001616           JUNCTION        0.53          0.607        0.003
  YS02001619           JUNCTION        0.52          0.581        0.029
  YS02001622           JUNCTION        0.52          0.567        0.053
  YS02001625           JUNCTION        0.68          0.780        0.000
  YS02001629           JUNCTION        0.47          0.470        0.000
  YS02001633           JUNCTION        0.70          1.060        0.000
  YS02001641           JUNCTION        0.62          0.947        0.153
  YS02001644           JUNCTION        0.58          0.920        0.000
  YS02001647           JUNCTION        0.38          0.746        0.154
  YS02001649           JUNCTION        0.48          0.892        0.158
  YS02001652           JUNCTION        0.31          0.757        0.373
  YS02001655           JUNCTION        0.15          0.835        0.365
  YS02001658           JUNCTION        0.03          0.806        0.494
  YS02001748           JUNCTION        0.01          0.355        0.835
  YS02001751           JUNCTION        0.06          0.421        0.779
  YS02001754           JUNCTION        0.17          0.529        0.621
  YS02001757           JUNCTION        0.51          0.842        0.368
  YS02001759           JUNCTION        0.42          0.799        0.411
  YS02001762           JUNCTION        0.39          0.797        0.353
  YS02001765           JUNCTION        0.36          0.769        0.331
  YS02001767           JUNCTION        0.34          0.769        0.261
  YS02001770           JUNCTION        0.31          0.803        0.117
  YS02001774           JUNCTION        0.38          0.913        0.137
  YS02001779           JUNCTION        0.19          0.680        0.000
  YS02001783           JUNCTION        0.37          0.546        1.054
  YS02001784           JUNCTION        0.35          0.433        1.057
  YS02001786           JUNCTION        0.26          0.125        1.305
  YS02001882           JUNCTION        0.32          0.830        0.000
  YS02001884           JUNCTION        0.33          0.870        0.000
  YS02001887           JUNCTION        0.36          0.891        0.059
  YS02001890           JUNCTION        0.38          0.760        0.000
  YS02001895           JUNCTION        0.31          0.734        0.016
  YS02001898           JUNCTION        0.30          0.633        0.107
  YS02001901           JUNCTION        0.35          0.870        0.000
  YS02001904           JUNCTION        0.34          0.654        0.196
  YS02001907           JUNCTION        0.57          0.950        0.000
  YS02001910           JUNCTION        0.40          0.978        0.122
  YS02001915           JUNCTION        0.32          0.930        0.070
  YS02001918           JUNCTION        0.24          0.810        0.000
  YS02001920           JUNCTION        0.25          1.140        0.000
  YS02001923           JUNCTION        0.01          0.820        0.000
  YS02001926           JUNCTION        0.01          0.900        0.000
  YS02001929           JUNCTION        0.01          0.780        0.000
  YS02006553           JUNCTION        0.58          0.992        0.198
  YS02006556           JUNCTION        0.48          0.946        0.404
  YS02006558           JUNCTION        0.47          0.929        0.471
  YS02006561           JUNCTION        0.21          0.240        0.910
  YS02163301           JUNCTION        0.68          1.010        0.020
  YS02163601           JUNCTION        0.73          1.033        0.047
  YS02164001           JUNCTION        0.63          0.949        0.151
  YSB1154              JUNCTION        0.77          1.176        0.224
  YSB1171              JUNCTION        0.77          1.100        0.000
  YSB1174              JUNCTION        0.68          1.090        0.160
  YSB6556              JUNCTION        0.62          1.021        0.079
  
  
  *********************
  Node Flooding Summary
  *********************
  
  Flooding refers to all water that overflows a node, whether it ponds or not.
  --------------------------------------------------------------------------
                                                             Total   Maximum
                                 Maximum   Time of Max       Flood    Ponded
                        Hours       Rate    Occurrence      Volume     Depth
  Node                 Flooded       LPS   days hr:min    10^6 ltr    Meters
  --------------------------------------------------------------------------
  HS02004770              0.28    634.64      0  02:02       0.345     0.000
  HS02004777              0.01     67.62      0  01:56       0.001     0.000
  HS02004785              0.01    112.63      0  01:56       0.000     0.000
  HS02004788              0.01    230.46      0  01:56       0.001     0.000
  HS02004792              0.28   1099.67      0  02:02       0.615     0.000
  HS02004799              0.07     81.28      0  01:59       0.009     0.000
  HS02004807              0.01     12.33      0  01:59       0.000     0.000
  HS02004842              0.01     71.05      0  01:59       0.001     0.000
  HS02004852              0.01    172.33      0  01:59       0.000     0.000
  HS02004856              0.01    250.45      0  01:59       0.001     0.000
  HS02004862              0.01    131.20      0  01:59       0.001     0.000
  HS02004881              0.01     44.97      0  01:59       0.000     0.000
  HS02004901              0.34    510.36      0  02:03       0.453     0.000
  WS02006109              0.32    228.12      0  02:02       0.151     0.000
  WS02006230              0.59    552.12      0  02:02       0.737     0.000
  WS02006231              0.01      0.22      0  02:13       0.000     0.000
  WS02006232              0.16      2.72      0  02:13       0.000     0.000
  WS02006234              0.62     55.76      0  02:13       0.115     0.000
  WS02006239              0.01      0.25      0  02:13       0.000     0.000
  WS02006242              0.72    123.45      0  02:23       0.291     0.000
  WS02006248              0.98    338.98      0  02:13       1.006     0.000
  WS02006249              1.53   1268.93      0  02:01       3.481     0.000
  WS02006251              0.01     47.04      0  01:59       0.000     0.000
  WS02006252              0.36    380.57      0  02:04       0.216     0.000
  WS02006253              0.01    110.70      0  01:59       0.000     0.000
  WS02006256              0.26    293.19      0  00:00       0.078     0.000
  YS02001580              0.01     84.71      0  01:56       0.000     0.000
  YS02001586              0.32    176.68      0  02:04       0.114     0.000
  YS02001593              0.01      0.10      0  02:13       0.000     0.000
  YS02001596              0.01      0.17      0  02:13       0.000     0.000
  YS02001600              0.01     10.14      0  02:13       0.000     0.000
  YS02001601              0.48    771.74      0  02:03       0.733     0.000
  YS02001602              0.36     61.98      0  02:15       0.070     0.000
  YS02001605              0.01      0.31      0  02:13       0.000     0.000
  YS02001607              0.01      0.17      0  02:13       0.000     0.000
  YS02001610              0.30    349.66      0  02:05       0.233     0.000
  YS02001625              0.26    877.05      0  02:03       0.358     0.000
  YS02001629              0.04     92.32      0  01:56       0.006     0.000
  YS02001633              0.01      7.37      0  02:13       0.000     0.000
  YS02001644              0.02     68.06      0  02:02       0.003     0.000
  YS02001779              0.01    292.03      0  02:00       0.002     0.000
  YS02001882              0.01      1.12      0  02:13       0.000     0.000
  YS02001884              0.01      0.20      0  02:13       0.000     0.000
  YS02001890              0.05     64.46      0  02:00       0.006     0.000
  YS02001901              0.01      0.95      0  02:13       0.000     0.000
  YS02001907              0.19   1034.83      0  02:01       0.347     0.000
  YS02001918              0.01    251.21      0  02:00       0.003     0.000
  YS02001920              0.01     67.68      0  02:00       0.000     0.000
  YS02001923              0.01    280.01      0  02:00       0.001     0.000
  YS02001926              0.01    133.83      0  02:00       0.001     0.000
  YS02001929              0.01    204.70      0  02:00       0.001     0.000
  YSB1171                 0.15    456.83      0  02:03       0.154     0.000
  
  
  **********************
  Storage Volume Summary
  **********************
  
  --------------------------------------------------------------------------------------------------
                         Average     Avg  Evap Exfil       Maximum     Max    Time of Max    Maximum
                          Volume    Pcnt  Pcnt  Pcnt        Volume    Pcnt     Occurrence    Outflow
  Storage Unit           1000 m3    Full  Loss  Loss       1000 m3    Full    days hr:min        LPS
  --------------------------------------------------------------------------------------------------
  CC-storage               2.047      32     0     0         3.995      62       0  02:25    1783.53
  JK-storage               0.078      27     0     0         0.200      69       0  02:17    2300.00
  XR-storage               0.942      65     0     0         1.111      77       0  08:00     380.00
  
  
  ***********************
  Outfall Loading Summary
  ***********************
  
  -----------------------------------------------------------
                         Flow       Avg       Max       Total
                         Freq      Flow      Flow      Volume
  Outfall Node           Pcnt       LPS       LPS    10^6 ltr
  -----------------------------------------------------------
  CC-1                  52.44    683.00    683.00       5.548
  CC-2                  20.48    683.00    683.00       1.963
  JK-1                   0.19   1000.00   1000.00       0.053
  JK-2                  16.27   1000.00   1000.00       3.085
  WSC                   99.95    626.34   1487.71      13.497
  -----------------------------------------------------------
  System                37.87   3992.34   1487.71      24.146
  
  
  ********************
  Link Flow Summary
  ********************
  
  -----------------------------------------------------------------------------
                                 Maximum  Time of Max   Maximum    Max/    Max/
                                  |Flow|   Occurrence   |Veloc|    Full    Full
  Link                 Type          LPS  days hr:min     m/sec    Flow   Depth
  -----------------------------------------------------------------------------
  1                    CONDUIT   1487.71     0  02:06      3.69    0.52    0.51
  HS02004478WS02006287 CONDUIT   2261.85     0  02:02      2.61    0.63    1.00
  HS02004479HS02004480 CONDUIT    464.82     0  01:59      0.66    0.45    1.00
  HS02004480HS02004478 CONDUIT   2127.26     0  01:57      3.04    8.96    1.00
  HS02004770HS02004777 CONDUIT    755.24     0  01:56      1.08    1.38    1.00
  HS02004777HS02004785 CONDUIT    772.99     0  01:56      1.15    0.95    1.00
  HS02004785HS02004788 CONDUIT    645.97     0  01:56      1.36    4.87    1.00
  HS02004788HS02004792 CONDUIT    808.73     0  01:56      1.42    0.54    1.00
  HS02004792HS02004799 CONDUIT   1628.95     0  01:57      2.33    1.00    1.00
  HS02004799HS02004480 CONDUIT   1773.95     0  01:57      2.53    2.24    1.00
  HS02004802HS02004478 CONDUIT    841.95     0  02:02      1.20    0.74    1.00
  HS02004807HS02004802 CONDUIT    842.14     0  02:02      1.20    1.61    1.00
  HS02004817HS02004807 CONDUIT    556.79     0  02:03      0.80    0.33    1.00
  HS02004817HS02004824 CONDUIT    556.22     0  02:03      0.79    0.25    1.00
  HS02004824HS02004830 CONDUIT    653.54     0  01:57      0.94    0.86    1.00
  HS02004830HS02004837 CONDUIT    667.47     0  01:57      1.03    0.66    1.00
  HS02004837HS02004842 CONDUIT    845.04     0  01:57      1.21    0.50    1.00
  HS02004842HS02004848 CONDUIT    843.95     0  01:57      1.34    0.49    1.00
  HS02004848HS02004852 CONDUIT   1089.90     0  01:59      1.64    1.23    1.00
  HS02004852HS02004856 CONDUIT   1097.76     0  01:59      1.57    1.26    1.00
  HS02004856HS02004862 CONDUIT   1140.50     0  01:59      1.71    1.14    1.00
  HS02004862HS02004870 CONDUIT   1226.58     0  01:59      1.97    1.32    1.00
  HS02004870HS02004876 CONDUIT   1262.56     0  01:59      1.97    0.84    1.00
  HS02004876HS02004881 CONDUIT   1379.44     0  02:00      2.53   14.67    1.00
  HS02004881HS02006253 CONDUIT   1463.12     0  02:00      2.75    0.29    1.00
  HS02004901HS02004770 CONDUIT    265.73     0  02:12      0.38    1.00    1.00
  WS02001211WS02001212 CONDUIT    208.20     0  02:40      0.54    0.16    0.69
  WS02001212WS02001213 CONDUIT    211.78     0  02:39      1.04    0.33    0.56
  WS02001213WS02003059 CONDUIT    216.03     0  02:39      0.47    0.36    0.89
  WS02003059WS02003060 CONDUIT    220.77     0  02:39      0.66    0.14    0.81
  WS02003060WS02003069 CONDUIT   1485.20     0  02:04      2.08    0.58    0.60
  WS02003066WSF200     CONDUIT   1283.44     0  02:02      3.25    0.22    0.38
  WS02003067WS02003066 CONDUIT   1283.27     0  02:02      1.99    0.41    0.56
  WS02003069WS02003072 CONDUIT   1485.36     0  02:06      1.89    0.72    0.66
  WS02003072WS02003073 CONDUIT   1485.51     0  02:06      2.04    3.21    0.61
  WS02004138WS02004139 CONDUIT    190.77     0  00:29      2.16    0.04    0.41
  WS02004139WS02001211 CONDUIT    195.89     0  01:54      0.54    0.25    0.60
  WS02004401WS02004402 CONDUIT   1283.13     0  02:02      1.63    1.54    1.00
  WS02004402WS02004403 CONDUIT   1283.43     0  02:02      1.63    1.84    1.00
  WS02004403WS02004404 CONDUIT   1283.62     0  02:01      1.63    0.93    1.00
  WS02004404WS02004405 CONDUIT   1284.56     0  02:01      1.64   12.59    1.00
  WS02004405WS02004406 CONDUIT   1284.42     0  02:01      1.64    2.53    1.00
  WS02004406WS02004407 CONDUIT   1284.85     0  02:01      1.77    0.57    0.95
  WS02004407WS02004409 CONDUIT   1282.87     0  02:02      1.79    0.45    0.95
  WS02004409WS02004410 CONDUIT   1282.81     0  02:02      1.63    1.66    1.00
  WS02004410WS02004411 CONDUIT   1282.62     0  02:02      1.63    1.75    1.00
  WS02004411WS02004412 CONDUIT   1282.69     0  02:02      1.63    1.82    1.00
  WS02004412WS02004413 CONDUIT   1282.55     0  02:02      1.63    0.86    1.00
  WS02004413WS02003067 CONDUIT   1282.57     0  02:02      1.99    0.55    0.76
  WS02006109WS02006110 CONDUIT   1143.69     0  02:13      2.28    2.20    1.00
  WS02006110WS02006113 CONDUIT   1141.71     0  02:13      2.27    1.04    1.00
  WS02006111WS02006112 CONDUIT   1130.58     0  02:13      2.25    0.54    1.00
  WS02006112WS02006115 CONDUIT   1282.11     0  02:01      1.63    0.76    1.00
  WS02006113WS02006111 CONDUIT   1135.95     0  02:13      2.62    1.36    1.00
  WS02006115WS02006116 CONDUIT   1282.34     0  02:01      1.63    1.65    1.00
  WS02006116WS02004401 CONDUIT   1282.69     0  02:02      1.63    1.77    1.00
  WS02006228WS02006109 CONDUIT   1267.15     0  02:02      2.52    5.54    1.00
  WS02006229WS02006228 CONDUIT   1267.43     0  02:02      2.52    4.20    1.00
  WS02006230WS02006229 CONDUIT    994.75     0  02:02      2.58   22.14    1.00
  WS02006231WS02006230 CONDUIT    466.69     0  03:10      1.21    7.08    1.00
  WS02006232WS02006231 CONDUIT    465.46     0  03:10      1.21    0.98    1.00
  WS02006234WS02006232 CONDUIT    463.92     0  03:10      1.41    0.94    1.00
  WS02006235WS02006234 CONDUIT    459.97     0  03:10      1.21    4.85    1.00
  WS02006238WS02006235 CONDUIT    409.58     0  02:13      1.45    0.91    1.00
  WS02006239WS02006238 CONDUIT    400.98     0  02:22      1.11    1.28    1.00
  WS02006240WS02006239 CONDUIT    401.24     0  02:13      1.26    1.26    1.00
  WS02006242WS02006240 CONDUIT    400.85     0  02:13      1.14    1.59    1.00
  WS02006243WS02006242 CONDUIT    397.20     0  03:20      1.34    0.85    1.00
  WS02006245WS02006243 CONDUIT    397.21     0  03:20      1.39    1.17    1.00
  WS02006247WS02006245 CONDUIT    397.42     0  03:15      1.37    3.15    1.00
  WS02006248WS02006247 CONDUIT    398.07     0  03:15      1.38    0.87    1.00
  WS02006249WS02006248 CONDUIT    398.17     0  03:15      1.38    2.18    1.00
  WS02006251WS02006249 CONDUIT   1329.59     0  02:01      3.45    3.83    1.00
  WS02006252WS02006251 CONDUIT    407.11     0  02:30     26.25    1.49    1.00
  WS02006253WS02006251 CONDUIT   1492.39     0  02:00      3.88    4.47    1.00
  WS02006256WS02006235 CONDUIT    288.93     0  00:00      4.23    3.06    1.00
  WS02006280WS02006229 CONDUIT   2263.54     0  02:02      4.53    0.48    1.00
  WS02006284WS02006280 CONDUIT   2261.80     0  02:02      3.02    0.95    1.00
  WS02006287WS02006284 CONDUIT   2262.05     0  02:02      2.88    1.05    1.00
  WSF200WS02003060     CONDUIT   1282.70     0  02:02      2.32    0.28    0.50
  YS02001580YS02001583 CONDUIT    117.26     0  01:56      0.67    0.45    1.00
  YS02001583YS02001586 CONDUIT    167.07     0  01:56      0.70    0.25    1.00
  YS02001586YS02001590 CONDUIT    317.86     0  02:02      1.27    0.56    1.00
  YS02001590YS02001593 CONDUIT    317.95     0  02:06      1.12    2.00    1.00
  YS02001593YS02001596 CONDUIT    317.88     0  02:08      1.75    0.50    1.00
  YS02001596YS02001600 CONDUIT    317.99     0  02:04      1.21    0.62    1.00
  YS02001600YS02001601 CONDUIT    317.91     0  02:10      1.12    0.55    1.00
  YS02001601YS02001602 CONDUIT    517.67     0  01:56      1.83    1.87    1.00
  YS02001602YS02001605 CONDUIT    517.19     0  01:56      1.83   10.94    1.00
  YS02001605YS02001607 CONDUIT    516.92     0  01:56      1.83    2.83    1.00
  YS02001607YS02001610 CONDUIT    516.09     0  01:55      0.66    0.49    1.00
  YS02001610YS02001613 CONDUIT    518.14     0  01:56      0.66    0.60    1.00
  YS02001613YS02001616 CONDUIT    520.84     0  01:55      0.67    0.45    1.00
  YS02001616YS02001619 CONDUIT    501.29     0  01:56      0.66    0.87    1.00
  YS02001619YS02001622 CONDUIT    939.58     0  01:58      1.20    1.38    1.00
  YS02001622YS02001625 CONDUIT    938.77     0  01:58      1.20    0.50    1.00
  YS02001625YS02001629 CONDUIT    939.21     0  01:58      1.20    0.45    1.00
  YS02001629YS02163301 CONDUIT    938.03     0  01:58      1.19    1.16    1.00
  YS02001633YS02163601 CONDUIT   1418.00     0  01:59      1.81    1.49    1.00
  YS02001641YS02001644 CONDUIT   1417.32     0  01:59      1.80    4.58    1.00
  YS02001644YS02001647 CONDUIT   1842.36     0  01:59      2.36    1.08    1.00
  YS02001647YS02001649 CONDUIT   1857.18     0  01:59      2.39    0.98    1.00
  YS02001649YS02001757 CONDUIT   2129.51     0  01:59      2.71    1.29    1.00
  YS02001652YS02001649 CONDUIT    643.43     0  02:03      0.82    0.32    1.00
  YS02001655YS02001652 CONDUIT    642.20     0  02:03      1.31    0.31    1.00
  YS02001658YS02001655 CONDUIT    642.46     0  02:03      1.93    0.27    1.00
  YS02001661YS02001658 CONDUIT    750.57     0  02:01      2.38    0.29    0.93
  YS02001664YS02001661 CONDUIT    579.74     0  02:02      2.39    0.18    0.61
  YS02001745YS02001748 CONDUIT    570.69     0  02:02      2.22    0.22    0.74
  YS02001748YS02001751 CONDUIT    467.44     0  02:05      1.74    0.24    1.00
  YS02001751YS02001754 CONDUIT    415.04     0  02:04      1.43    0.20    1.00
  YS02001754YS02001757 CONDUIT    417.03     0  02:04      0.53    0.17    1.00
  YS02001757CaochengTiaoxuchi CONDUIT   3369.77     0  02:02      4.37    1.46    1.00
  YS02001759YS02001757 CONDUIT   1223.73     0  02:00      1.56    0.87    1.00
  YS02001762YS02001759 CONDUIT    734.51     0  02:00      0.94    0.85    1.00
  YS02001765YS02001762 CONDUIT    725.73     0  02:00      0.92    0.68    1.00
  YS02001767YS02001765 CONDUIT    715.82     0  02:00      0.91    0.90    1.00
  YS02001770YS02001767 CONDUIT    707.14     0  02:00      0.90    2.80    1.00
  YS02001774YS02001770 CONDUIT    336.69     0  02:00      0.43    0.22    1.00
  YS02001779YS02001774 CONDUIT    340.33     0  02:00      0.44    0.17    1.00
  YS02001783YS02001784 CONDUIT   1154.62     0  02:01      2.30    1.59    1.00
  YS02001784YS02001785 CONDUIT   1156.53     0  02:01      2.30    2.69    1.00
  YS02001786YS02001788 CONDUIT   1157.41     0  02:01      2.47    2.23    0.89
  YS02001788YS02001790 CONDUIT   1166.57     0  02:00      2.70    0.86    0.84
  YS02001790YS02001791 CONDUIT   1280.06     0  02:03      3.41    1.39    0.70
  YS02001791YS02001793 CONDUIT   1233.39     0  02:02      6.78    0.53    0.40
  YS02001793JiankangQianchi CONDUIT   1231.06     0  02:04      2.47    0.10    0.62
  YS02001882YS02001884 CONDUIT     53.96     0  01:58      0.13    0.06    1.00
  YS02001884YS02001887 CONDUIT     76.45     0  01:58      0.10    0.10    1.00
  YS02001887YS02001890 CONDUIT    537.69     0  02:01      0.68    0.92    1.00
  YS02001890YS02001895 CONDUIT    506.87     0  02:02      0.65    0.24    1.00
  YS02001895YS02001898 CONDUIT    507.36     0  02:02      0.65    0.88    1.00
  YS02001898YS02001901 CONDUIT    507.80     0  02:02      0.65    0.33    1.00
  YS02001901YS02001904 CONDUIT    507.78     0  02:02      0.65    0.79    1.00
  YS02001904YS02001907 CONDUIT    508.13     0  02:02      0.65    0.18    1.00
  YS02001907YS02006553 CONDUIT    822.41     0  02:13      0.91    0.97    1.00
  YS02001910YS02001907 CONDUIT   1013.80     0  02:01      1.29    0.57    1.00
  YS02001915YS02001910 CONDUIT   1013.52     0  02:01      1.29    0.50    1.00
  YS02001918YS02001915 CONDUIT    455.94     0  02:01      0.58    0.25    1.00
  YS02001920YS02001918 CONDUIT    454.47     0  02:01      0.64    0.44    1.00
  YS02001923YS02001920 CONDUIT    451.18     0  02:01      0.72    0.20    1.00
  YS02001926YS02001923 CONDUIT    405.72     0  02:01      0.98    0.58    1.00
  YS02001929YS02001926 CONDUIT    403.49     0  02:01      1.17    0.19    1.00
  YS02006553YS02006556 CONDUIT    814.68     0  02:13      1.04    0.70    1.00
  YS02006556YS02006558 CONDUIT    820.26     0  02:13      1.04    0.65    1.00
  YS02006558YS02006561 CONDUIT   1155.40     0  02:00      4.09    2.55    1.00
  YS02006561YS02001783 CONDUIT   1154.80     0  02:01      2.30    0.60    1.00
  YS02163301YS02001633 CONDUIT    938.29     0  01:58      1.19    0.88    1.00
  YS02163601YS02164001 CONDUIT   1416.55     0  01:59      1.80    1.26    1.00
  YS02164001YS02001641 CONDUIT   1415.99     0  01:59      1.80    1.93    1.00
  YSB1154YSB6556       CONDUIT    298.10     0  02:02      0.77    0.54    1.00
  YSB1171HS02004479    CONDUIT    465.62     0  01:59      0.93    0.31    1.00
  YSB1174YSB1171       CONDUIT    252.71     0  02:01      0.66    0.39    1.00
  YSB6556YSB1171       CONDUIT    298.42     0  02:02      0.78    0.31    1.00
  CC-R1                PUMP       683.00     0  00:00              1.00
  CC-R2                PUMP       683.00     0  00:00              1.00
  CC-S1                PUMP       200.00     0  00:00              1.00
  CC-S2                PUMP       200.00     0  00:00              1.00
  JK-R1                PUMP      1000.00     0  00:00              1.00
  JK-R2                PUMP      1000.00     0  00:00              1.00
  JK-S                 PUMP       300.00     0  00:00              1.00
  XR-1                 PUMP        95.00     0  00:00              1.00
  XR-2                 PUMP        95.00     0  00:00              1.00
  XR-3                 PUMP        95.00     0  00:00              1.00
  XR-4                 PUMP        95.00     0  00:00              1.00
  
  
  ***************************
  Flow Classification Summary
  ***************************
  
  -------------------------------------------------------------------------------------
                      Adjusted    ---------- Fraction of Time in Flow Class ---------- 
                       /Actual         Up    Down  Sub   Sup   Up    Down  Norm  Inlet 
  Conduit               Length    Dry  Dry   Dry   Crit  Crit  Crit  Crit  Ltd   Ctrl  
  -------------------------------------------------------------------------------------
  1                       1.00   0.00  0.00  0.00  0.00  1.00  0.00  0.00  0.34  0.00
  HS02004478WS02006287    1.00   0.11  0.00  0.00  0.60  0.29  0.00  0.00  0.60  0.00
  HS02004479HS02004480    1.00   0.05  0.00  0.00  0.95  0.00  0.00  0.00  0.11  0.00
  HS02004480HS02004478    1.00   0.10  0.00  0.00  0.46  0.00  0.00  0.44  0.00  0.00
  HS02004770HS02004777    1.00   0.00  0.09  0.00  0.91  0.00  0.00  0.00  0.03  0.00
  HS02004777HS02004785    1.00   0.00  0.00  0.00  1.00  0.00  0.00  0.00  0.12  0.00
  HS02004785HS02004788    1.00   0.00  0.00  0.00  1.00  0.00  0.00  0.00  0.00  0.00
  HS02004788HS02004792    1.00   0.00  0.00  0.00  0.99  0.01  0.00  0.00  0.91  0.00
  HS02004792HS02004799    1.00   0.00  0.00  0.00  0.98  0.02  0.00  0.00  0.87  0.00
  HS02004799HS02004480    1.00   0.00  0.05  0.00  0.89  0.00  0.06  0.00  0.00  0.00
  HS02004802HS02004478    1.00   0.10  0.00  0.00  0.90  0.00  0.00  0.00  0.02  0.00
  HS02004807HS02004802    1.00   0.09  0.00  0.00  0.90  0.00  0.00  0.01  0.00  0.00
  HS02004817HS02004807    1.00   0.00  0.09  0.00  0.91  0.00  0.00  0.00  0.01  0.00
  HS02004817HS02004824    1.00   0.00  0.00  0.00  1.00  0.00  0.00  0.00  0.82  0.00
  HS02004824HS02004830    1.00   0.00  0.00  0.00  1.00  0.00  0.00  0.00  0.01  0.00
  HS02004830HS02004837    1.00   0.00  0.00  0.00  1.00  0.00  0.00  0.00  0.89  0.00
  HS02004837HS02004842    1.00   0.00  0.00  0.00  1.00  0.00  0.00  0.00  0.11  0.00
  HS02004842HS02004848    1.00   0.00  0.09  0.00  0.91  0.00  0.00  0.00  0.58  0.00
  HS02004848HS02004852    1.00   0.09  0.00  0.00  0.91  0.00  0.00  0.00  0.71  0.00
  HS02004852HS02004856    1.00   0.09  0.00  0.00  0.90  0.00  0.00  0.00  0.68  0.00
  HS02004856HS02004862    1.00   0.00  0.11  0.00  0.89  0.00  0.00  0.00  0.75  0.00
  HS02004862HS02004870    1.00   0.00  0.00  0.00  1.00  0.00  0.00  0.00  0.03  0.00
  HS02004870HS02004876    1.00   0.00  0.00  0.00  0.99  0.01  0.00  0.00  0.87  0.00
  HS02004876HS02004881    1.00   0.04  0.00  0.00  0.73  0.23  0.00  0.00  0.00  0.00
  HS02004881HS02006253    1.00   0.03  0.03  0.00  0.44  0.02  0.00  0.47  0.18  0.00
  HS02004901HS02004770    1.00   0.09  0.00  0.00  0.91  0.00  0.00  0.00  0.00  0.00
  WS02001211WS02001212    1.00   0.00  0.04  0.00  0.96  0.00  0.00  0.00  0.00  0.00
  WS02001212WS02001213    1.00   0.04  0.00  0.00  0.50  0.00  0.46  0.00  0.00  0.00
  WS02001213WS02003059    1.00   0.00  0.00  0.00  0.99  0.00  0.00  0.00  0.00  0.00
  WS02003059WS02003060    1.00   0.00  0.00  0.00  1.00  0.00  0.00  0.00  0.03  0.00
  WS02003060WS02003069    1.00   0.00  0.00  0.00  0.99  0.01  0.00  0.00  0.52  0.00
  WS02003066WSF200        1.00   0.07  0.00  0.00  0.00  0.93  0.00  0.00  0.68  0.00
  WS02003067WS02003066    1.00   0.07  0.00  0.00  0.93  0.00  0.00  0.00  0.00  0.00
  WS02003069WS02003072    1.00   0.00  0.00  0.00  1.00  0.00  0.00  0.00  0.69  0.00
  WS02003072WS02003073    1.00   0.00  0.00  0.00  0.00  0.00  0.00  1.00  0.00  0.00
  WS02004138WS02004139    1.00   0.00  0.01  0.00  0.96  0.01  0.00  0.02  0.98  0.00
  WS02004139WS02001211    1.00   0.00  0.00  0.00  0.99  0.00  0.00  0.00  0.00  0.00
  WS02004401WS02004402    1.00   0.04  0.00  0.00  0.96  0.00  0.00  0.00  0.00  0.00
  WS02004402WS02004403    1.00   0.04  0.00  0.00  0.96  0.00  0.00  0.00  0.00  0.00
  WS02004403WS02004404    1.00   0.00  0.04  0.00  0.95  0.00  0.00  0.00  0.00  0.00
  WS02004404WS02004405    1.00   0.00  0.00  0.00  1.00  0.00  0.00  0.00  0.01  0.00
  WS02004405WS02004406    1.00   0.00  0.00  0.00  1.00  0.00  0.00  0.00  0.00  0.00
  WS02004406WS02004407    1.00   0.00  0.05  0.00  0.94  0.00  0.00  0.00  0.00  0.00
  WS02004407WS02004409    1.00   0.06  0.00  0.00  0.94  0.00  0.00  0.00  0.85  0.00
  WS02004409WS02004410    1.00   0.06  0.00  0.00  0.94  0.00  0.00  0.00  0.00  0.00
  WS02004410WS02004411    1.00   0.06  0.00  0.00  0.94  0.00  0.00  0.00  0.00  0.00
  WS02004411WS02004412    1.00   0.06  0.00  0.00  0.94  0.00  0.00  0.00  0.00  0.00
  WS02004412WS02004413    1.00   0.06  0.00  0.00  0.94  0.00  0.00  0.00  0.01  0.00
  WS02004413WS02003067    1.00   0.06  0.01  0.00  0.00  0.00  0.93  0.00  0.00  0.00
  WS02006109WS02006110    1.00   0.00  0.01  0.00  0.97  0.00  0.03  0.00  0.00  0.00
  WS02006110WS02006113    1.00   0.01  0.03  0.00  0.97  0.00  0.00  0.00  0.00  0.00
  WS02006111WS02006112    1.00   0.04  0.00  0.00  0.96  0.00  0.00  0.00  0.78  0.00
  WS02006112WS02006115    1.00   0.04  0.00  0.00  0.96  0.00  0.00  0.00  0.00  0.00
  WS02006113WS02006111    1.00   0.03  0.00  0.00  0.27  0.70  0.00  0.00  0.06  0.00
  WS02006115WS02006116    1.00   0.04  0.00  0.00  0.95  0.00  0.00  0.01  0.00  0.00
  WS02006116WS02004401    1.00   0.04  0.00  0.00  0.96  0.00  0.00  0.00  0.00  0.00
  WS02006228WS02006109    1.00   0.00  0.00  0.00  1.00  0.00  0.00  0.00  0.00  0.00
  WS02006229WS02006228    1.00   0.00  0.00  0.00  0.99  0.00  0.00  0.01  0.00  0.00
  WS02006230WS02006229    1.00   0.00  0.00  0.00  0.98  0.00  0.00  0.02  0.02  0.00
  WS02006231WS02006230    1.00   0.00  0.00  0.00  0.52  0.00  0.47  0.00  0.00  0.00
  WS02006232WS02006231    1.00   0.00  0.00  0.00  0.99  0.00  0.01  0.00  0.00  0.00
  WS02006234WS02006232    1.00   0.00  0.00  0.00  1.00  0.00  0.00  0.00  0.04  0.00
  WS02006235WS02006234    1.00   0.00  0.00  0.00  0.95  0.00  0.05  0.00  0.00  0.00
  WS02006238WS02006235    1.00   0.00  0.00  0.00  1.00  0.00  0.00  0.00  0.01  0.00
  WS02006239WS02006238    1.00   0.00  0.00  0.00  1.00  0.00  0.00  0.00  0.13  0.00
  WS02006240WS02006239    1.00   0.00  0.00  0.00  0.77  0.00  0.00  0.23  0.06  0.00
[...]
  WS02006280WS02006229    1.00   0.10  0.00  0.00  0.20  0.05  0.00  0.65  0.01  0.00
  WS02006284WS02006280    1.00   0.10  0.00  0.00  0.14  0.02  0.00  0.74  0.00  0.00
  WS02006287WS02006284    1.00   0.08  0.02  0.00  0.44  0.45  0.00  0.00  0.66  0.00
  WSF200WS02003060        1.00   0.00  0.07  0.00  0.45  0.48  0.00  0.00  0.64  0.00
  YS02001580YS02001583    1.00   0.23  0.52  0.00  0.25  0.00  0.00  0.00  0.68  0.00
  YS02001583YS02001586    1.00   0.32  0.26  0.00  0.42  0.00  0.00  0.00  0.69  0.00
  YS02001586YS02001590    1.00   0.09  0.00  0.00  0.61  0.02  0.00  0.27  0.34  0.00
  YS02001590YS02001593    1.00   0.09  0.00  0.00  0.14  0.00  0.76  0.00  0.00  0.00
  YS02001593YS02001596    1.00   0.10  0.00  0.00  0.17  0.01  0.00  0.72  0.02  0.00
  YS02001596YS02001600    1.00   0.10  0.00  0.00  0.29  0.02  0.00  0.60  0.06  0.00
  YS02001600YS02001601    1.00   0.10  0.00  0.00  0.90  0.00  0.00  0.00  0.62  0.00
  YS02001601YS02001602    1.00   0.09  0.00  0.00  0.90  0.00  0.00  0.00  0.00  0.00
  YS02001602YS02001605    1.00   0.10  0.00  0.00  0.90  0.00  0.00  0.00  0.00  0.00
  YS02001605YS02001607    1.00   0.10  0.00  0.00  0.90  0.00  0.00  0.00  0.00  0.00
  YS02001607YS02001610    1.00   0.10  0.00  0.00  0.90  0.00  0.00  0.00  0.01  0.00
  YS02001610YS02001613    1.00   0.10  0.00  0.00  0.90  0.00  0.00  0.00  0.00  0.00
  YS02001613YS02001616    1.00   0.09  0.00  0.00  0.91  0.00  0.00  0.00  0.00  0.00
  YS02001616YS02001619    1.00   0.09  0.00  0.00  0.91  0.00  0.00  0.00  0.00  0.00
  YS02001619YS02001622    1.00   0.09  0.00  0.00  0.91  0.00  0.00  0.00  0.35  0.00
  YS02001622YS02001625    1.00   0.09  0.00  0.00  0.91  0.00  0.00  0.00  0.04  0.00
  YS02001625YS02001629    1.00   0.10  0.03  0.00  0.21  0.00  0.67  0.00  0.00  0.00
  YS02001629YS02163301    1.00   0.11  0.00  0.00  0.89  0.00  0.00  0.00  0.00  0.00
  YS02001633YS02163601    1.00   0.00  0.01  0.00  0.99  0.00  0.00  0.00  0.15  0.00
  YS02001641YS02001644    1.00   0.00  0.00  0.00  1.00  0.00  0.00  0.00  0.00  0.00
  YS02001644YS02001647    1.00   0.00  0.12  0.00  0.88  0.00  0.00  0.00  0.00  0.00
  YS02001647YS02001649    1.00   0.00  0.12  0.00  0.51  0.37  0.00  0.00  0.59  0.00
  YS02001649YS02001757    1.00   0.00  0.00  0.00  0.63  0.37  0.00  0.00  0.52  0.00
  YS02001652YS02001649    1.00   0.00  0.00  0.00  0.98  0.02  0.00  0.00  0.76  0.00
  YS02001655YS02001652    1.00   0.00  0.00  0.00  0.26  0.02  0.00  0.72  0.08  0.00
  YS02001658YS02001655    1.00   0.00  0.10  0.00  0.52  0.38  0.00  0.00  0.73  0.00
  YS02001661YS02001658    1.00   0.10  0.00  0.00  0.36  0.54  0.00  0.00  0.72  0.00
  YS02001664YS02001661    1.00   0.09  0.00  0.00  0.70  0.21  0.00  0.00  0.86  0.00
  YS02001745YS02001748    1.00   0.00  0.00  0.00  0.08  0.01  0.00  0.91  0.05  0.00
  YS02001748YS02001751    1.00   0.00  0.00  0.00  0.72  0.28  0.00  0.00  0.79  0.00
  YS02001751YS02001754    1.00   0.00  0.00  0.00  0.21  0.02  0.00  0.78  0.05  0.00
  YS02001754YS02001757    1.00   0.00  0.00  0.00  1.00  0.00  0.00  0.00  0.84  0.00
  YS02001757CaochengTiaoxuchi    1.00   0.00  0.00  0.00  0.92  0.08  0.00  0.00  0.80  0.00
  YS02001759YS02001757    1.00   0.00  0.00  0.00  1.00  0.00  0.00  0.00  0.63  0.00
  YS02001762YS02001759    1.00   0.00  0.00  0.00  1.00  0.00  0.00  0.00  0.04  0.00
  YS02001765YS02001762    1.00   0.00  0.00  0.00  1.00  0.00  0.00  0.00  0.74  0.00
  YS02001767YS02001765    1.00   0.00  0.00  0.00  1.00  0.00  0.00  0.00  0.00  0.00
  YS02001770YS02001767    1.00   0.00  0.00  0.00  1.00  0.00  0.00  0.00  0.00  0.00
  YS02001774YS02001770    1.00   0.00  0.10  0.00  0.74  0.00  0.16  0.00  0.03  0.00
  YS02001779YS02001774    1.00   0.00  0.00  0.00  1.00  0.00  0.00  0.00  0.79  0.00
  YS02001783YS02001784    1.00   0.00  0.13  0.00  0.87  0.00  0.00  0.00  0.57  0.00
  YS02001784YS02001785    1.00   0.00  0.00  0.00  1.00  0.00  0.00  0.00  0.17  0.00
  YS02001786YS02001788    1.00   0.00  0.00  0.00  0.62  0.38  0.00  0.00  0.00  0.00
  YS02001788YS02001790    1.00   0.00  0.00  0.00  0.15  0.85  0.00  0.00  0.82  0.00
  YS02001790YS02001791    1.00   0.00  0.00  0.00  0.02  0.98  0.00  0.00  0.16  0.00
  YS02001791YS02001793    1.00   0.00  0.00  0.00  0.00  1.00  0.00  0.00  0.00  0.00
  YS02001793JiankangQianchi    1.00   0.00  0.00  0.00  0.97  0.03  0.00  0.00  0.98  0.00
  YS02001882YS02001884    1.00   0.11  0.00  0.00  0.89  0.00  0.00  0.00  0.00  0.00
  YS02001884YS02001887    1.00   0.07  0.02  0.00  0.91  0.00  0.00  0.00  0.00  0.00
  YS02001887YS02001890    1.00   0.00  0.00  0.00  0.95  0.00  0.05  0.00  0.00  0.00
  YS02001890YS02001895    1.00   0.00  0.11  0.00  0.89  0.00  0.00  0.00  0.00  0.00
  YS02001895YS02001898    1.00   0.11  0.00  0.00  0.87  0.00  0.02  0.00  0.00  0.00
  YS02001898YS02001901    1.00   0.11  0.00  0.00  0.89  0.00  0.00  0.00  0.01  0.00
  YS02001901YS02001904    1.00   0.11  0.00  0.00  0.89  0.00  0.00  0.00  0.00  0.00
  YS02001904YS02001907    1.00   0.00  0.11  0.00  0.89  0.00  0.00  0.00  0.00  0.00
  YS02001907YS02006553    1.00   0.00  0.04  0.00  0.96  0.00  0.00  0.00  0.00  0.00
  YS02001910YS02001907    1.00   0.00  0.00  0.00  0.95  0.00  0.00  0.04  0.12  0.00
  YS02001915YS02001910    1.00   0.00  0.00  0.00  0.96  0.04  0.00  0.00  0.16  0.00
  YS02001918YS02001915    1.00   0.00  0.00  0.00  0.96  0.04  0.00  0.00  0.78  0.00
  YS02001920YS02001918    1.00   0.00  0.00  0.00  1.00  0.00  0.00  0.00  0.00  0.00
  YS02001923YS02001920    1.00   0.00  0.00  0.00  1.00  0.00  0.00  0.00  0.94  0.00
  YS02001926YS02001923    1.00   0.00  0.07  0.00  0.05  0.00  0.87  0.00  0.00  0.00
  YS02001929YS02001926    1.00   0.00  0.09  0.00  0.91  0.00  0.00  0.00  0.84  0.00
  YS02006553YS02006556    1.00   0.02  0.00  0.00  0.98  0.00  0.00  0.00  0.03  0.00
  YS02006556YS02006558    1.00   0.00  0.00  0.00  1.00  0.00  0.00  0.00  0.00  0.00
  YS02006558YS02006561    1.00   0.12  0.00  0.00  0.05  0.83  0.00  0.00  0.18  0.00
  YS02006561YS02001783    1.00   0.12  0.00  0.00  0.09  0.78  0.00  0.00  0.71  0.00
  YS02163301YS02001633    1.00   0.00  0.11  0.00  0.89  0.00  0.00  0.00  0.00  0.00
  YS02163601YS02164001    1.00   0.00  0.08  0.00  0.92  0.00  0.00  0.00  0.00  0.00
  YS02164001YS02001641    1.00   0.01  0.07  0.00  0.92  0.00  0.00  0.00  0.05  0.00
  YSB1154YSB6556          1.00   0.09  0.00  0.00  0.91  0.00  0.00  0.00  0.02  0.00
  YSB1171HS02004479       1.00   0.05  0.00  0.00  0.94  0.00  0.00  0.01  0.10  0.00
  YSB1174YSB1171          1.00   0.06  0.02  0.00  0.92  0.00  0.00  0.00  0.00  0.00
  YSB6556YSB1171          1.00   0.06  0.04  0.00  0.91  0.00  0.00  0.00  0.00  0.00
  
  
  *************************
  Conduit Surcharge Summary
  *************************
  
  ----------------------------------------------------------------------------
                                                           Hours        Hours 
                         --------- Hours Full --------   Above Full   Capacity
  Conduit                Both Ends  Upstream  Dnstream   Normal Flow   Limited
  ----------------------------------------------------------------------------
  HS02004478WS02006287        0.39      0.39      0.56      0.01         0.01
  HS02004479HS02004480        0.56      0.56      0.58      0.01         0.01
  HS02004480HS02004478        0.49      0.56      0.49      1.64         0.49
  HS02004770HS02004777        0.47      0.47      0.47      0.10         0.07
  HS02004777HS02004785        0.42      0.42      0.47      0.01         0.01
  HS02004785HS02004788        0.41      0.42      0.41      1.40         0.40
  HS02004788HS02004792        0.41      0.41      0.53      0.01         0.01
  HS02004792HS02004799        0.53      0.53      0.64      0.01         0.01
  HS02004799HS02004480        0.56      0.56      0.64      0.75         0.01
  HS02004802HS02004478        0.50      0.50      0.57      0.01         0.01
  HS02004807HS02004802        0.54      0.54      0.56      0.14         0.14
  HS02004817HS02004807        0.54      0.54      1.14      0.01         0.01
  HS02004817HS02004824        0.41      0.41      1.14      0.01         0.01
  HS02004824HS02004830        0.38      0.38      0.41      0.01         0.01
  HS02004830HS02004837        0.34      0.34      0.38      0.01         0.01
  HS02004837HS02004842        0.34      0.34      0.47      0.01         0.01
  HS02004842HS02004848        0.30      0.30      0.47      0.01         0.01
  HS02004848HS02004852        0.30      0.30      0.33      0.03         0.01
  HS02004852HS02004856        0.33      0.33      0.35      0.02         0.01
  HS02004856HS02004862        0.31      0.31      0.34      0.02         0.01
  HS02004862HS02004870        0.34      0.34      0.36      0.04         0.04
  HS02004870HS02004876        0.36      0.36      0.44      0.01         0.01
  HS02004876HS02004881        0.41      0.44      0.41      1.40         0.41
  HS02004881HS02006253        0.41      0.41      1.53      0.01         0.01
  HS02004901HS02004770        0.47      0.47      0.47      0.01         0.01
  WS02003072WS02003073        0.01      0.01      0.01      2.24         0.01
  WS02004401WS02004402        1.50      1.50      1.51      1.28         1.28
  WS02004402WS02004403        1.51      1.51      1.51      1.50         1.50
  WS02004403WS02004404        1.51      1.51      1.64      0.01         0.01
  WS02004404WS02004405        1.62      1.64      1.62      2.62         1.62
  WS02004405WS02004406        1.59      1.62      1.59      1.75         1.59
  WS02004406WS02004407        0.01      0.01      1.59      0.01         0.01
  WS02004407WS02004409        0.01      0.01      0.85      0.01         0.01
  WS02004409WS02004410        0.81      0.85      0.81      1.35         0.81
  WS02004410WS02004411        0.75      0.81      0.75      1.46         0.75
  WS02004411WS02004412        0.67      0.75      0.67      1.50         0.67
  WS02004412WS02004413        0.67      0.67      1.20      0.01         0.01
  WS02004413WS02003067        0.01      0.01      1.20      0.01         0.01
  WS02006109WS02006110        1.71      1.71      2.04      1.71         0.01
  WS02006110WS02006113        1.14      1.14      2.02      0.22         0.01
  WS02006111WS02006112        1.11      1.11      2.18      0.01         0.01
  WS02006112WS02006115        1.37      1.37      1.77      0.01         0.01
  WS02006113WS02006111        1.12      1.14      1.12      1.25         1.12
  WS02006115WS02006116        1.38      1.39      1.39      1.34         1.34
  WS02006116WS02004401        1.50      1.50      1.50      1.48         1.47
  WS02006228WS02006109        1.99      2.05      1.99      2.28         1.99
  WS02006229WS02006228        1.99      2.01      1.99      2.17         1.98
  WS02006230WS02006229        2.09      2.12      2.10      2.63         1.08
  WS02006231WS02006230        1.63      1.63      1.65      2.28         0.90
  WS02006232WS02006231        1.64      1.64      1.79      0.01         0.12
  WS02006234WS02006232        1.67      1.67      1.79      0.01         0.01
  WS02006235WS02006234        1.65      1.65      1.69      2.07         0.86
  WS02006238WS02006235        1.70      1.70      1.74      0.01         0.26
  WS02006239WS02006238        1.69      1.69      1.71      0.95         0.25
  WS02006240WS02006239        1.63      1.63      1.64      0.92         0.22
  WS02006242WS02006240        1.63      1.63      1.68      1.33         0.73
  WS02006243WS02006242        1.61      1.61      1.66      0.01         0.01
  WS02006245WS02006243        1.59      1.59      1.60      0.20         0.16
  WS02006247WS02006245        1.59      1.59      1.59      1.81         0.60
  WS02006248WS02006247        1.57      1.57      1.59      0.01         0.01
  WS02006249WS02006248        1.57      1.57      1.57      0.90         0.01
  WS02006251WS02006249        1.57      1.57      1.57      1.52         1.48
  WS02006252WS02006251        1.64      1.64      1.67      1.23         0.01
  WS02006253WS02006251        1.56      1.56      1.57      0.67         0.01
  WS02006256WS02006235        2.48      2.50      6.90      0.31         0.01
  WS02006280WS02006229        0.67      0.67      0.79      0.01         0.01
  WS02006284WS02006280        0.58      0.58      0.66      0.01         0.01
  WS02006287WS02006284        0.49      0.49      0.59      0.18         0.17
  YS02001580YS02001583        0.43      0.43      0.47      0.01         0.01
  YS02001583YS02001586        0.44      0.44      0.55      0.01         0.01
  YS02001586YS02001590        0.55      0.55      0.62      0.01         0.01
  YS02001590YS02001593        0.62      0.62      0.64      0.66         0.01
  YS02001593YS02001596        0.63      0.63      0.72      0.01         0.01
  YS02001596YS02001600        0.77      0.77      0.87      0.01         0.01
  YS02001600YS02001601        0.93      0.93      1.30      0.01         0.01
  YS02001601YS02001602        1.14      1.14      1.35      0.89         0.01
  YS02001602YS02001605        1.07      1.07      1.14      2.08         0.01
  YS02001605YS02001607        1.02      1.07      1.02      1.24         1.02
  YS02001607YS02001610        0.58      0.58      0.60      0.01         0.01
  YS02001610YS02001613        0.57      0.57      0.60      0.01         0.01
  YS02001613YS02001616        0.53      0.53      0.57      0.01         0.01
  YS02001616YS02001619        0.52      0.52      0.53      0.01         0.01
  YS02001619YS02001622        0.52      0.52      0.52      0.65         0.49
  YS02001622YS02001625        0.52      0.52      0.68      0.01         0.01
  YS02001625YS02001629        0.47      0.47      0.68      0.01         0.01
  YS02001629YS02163301        0.67      0.67      0.68      0.24         0.22
  YS02001633YS02163601        0.70      0.70      0.73      0.42         0.41
  YS02001641YS02001644        0.58      0.62      0.58      1.39         0.58
  YS02001644YS02001647        0.38      0.38      0.58      0.04         0.01
  YS02001647YS02001649        0.38      0.38      0.48      0.01         0.01
  YS02001649YS02001757        0.47      0.48      0.51      0.31         0.25
  YS02001652YS02001649        0.33      0.33      0.48      0.01         0.01
  YS02001655YS02001652        0.15      0.15      0.31      0.01         0.01
  YS02001658YS02001655        0.03      0.03      0.15      0.01         0.01
  YS02001661YS02001658        0.01      0.01      0.03      0.01         0.01
  YS02001745YS02001748        0.01      0.01      0.01      0.01         0.01
  YS02001748YS02001751        0.01      0.01      0.06      0.01         0.01
  YS02001751YS02001754        0.06      0.06      0.17      0.01         0.01
  YS02001754YS02001757        0.22      0.22      0.51      0.01         0.01
  YS02001757CaochengTiaoxuchi        0.42      0.51      1.17      0.29         0.16
  YS02001759YS02001757        0.42      0.42      0.51      0.01         0.01
  YS02001762YS02001759        0.39      0.39      0.42      0.01         0.02
  YS02001765YS02001762        0.36      0.36      0.39      0.01         0.01
  YS02001767YS02001765        0.33      0.34      0.36      0.01         0.02
  YS02001770YS02001767        0.33      0.33      0.34      0.38         0.24
  YS02001774YS02001770        0.31      0.31      0.38      0.01         0.01
  YS02001779YS02001774        0.19      0.19      0.38      0.01         0.01
  YS02001783YS02001784        0.35      0.37      0.35      0.51         0.35
  YS02001784YS02001785        0.25      0.35      0.25      0.72         0.25
  YS02001786YS02001788        0.01      0.25      0.01      0.60         0.01
  YS02001790YS02001791        0.01      0.01      0.01      0.34         0.01
  YS02001793JiankangQianchi        0.01      0.01      6.64      0.01         0.01
  YS02001882YS02001884        0.32      0.32      0.33      0.01         0.01
  YS02001884YS02001887        0.35      0.35      0.36      0.01         0.01
  YS02001887YS02001890        0.38      0.38      0.39      0.01         0.01
  YS02001890YS02001895        0.31      0.31      0.40      0.01         0.01
  YS02001895YS02001898        0.30      0.30      0.31      0.01         0.01
  YS02001898YS02001901        0.31      0.31      0.35      0.01         0.01
  YS02001901YS02001904        0.34      0.34      0.35      0.01         0.01
  YS02001904YS02001907        0.34      0.34      0.59      0.01         0.01
  YS02001907YS02006553        0.73      0.73      0.79      0.01         0.01
  YS02001910YS02001907        0.40      0.40      0.57      0.01         0.01
  YS02001915YS02001910        0.32      0.32      0.40      0.01         0.01
  YS02001918YS02001915        0.24      0.24      0.32      0.01         0.01
  YS02001920YS02001918        0.24      0.24      0.25      0.01         0.01
  YS02001923YS02001920        0.20      0.20      0.25      0.01         0.01
  YS02001926YS02001923        0.01      0.01      0.01      0.01         0.01
  YS02001929YS02001926        0.01      0.01      0.01      0.01         0.01
  YS02006553YS02006556        0.48      0.48      0.58      0.01         0.01
  YS02006556YS02006558        0.53      0.53      0.60      0.01         0.01
  YS02006558YS02006561        0.28      0.47      0.28      0.68         0.28
  YS02006561YS02001783        0.21      0.21      0.37      0.01         0.01
  YS02163301YS02001633        0.68      0.68      0.71      0.01         0.01
  YS02163601YS02164001        0.63      0.63      0.73      0.12         0.01
  YS02164001YS02001641        0.62      0.63      0.62      0.72         0.57
  YSB1154YSB6556              0.62      0.62      0.77      0.01         0.01
  YSB1171HS02004479           0.51      0.51      0.77      0.01         0.01
  YSB1174YSB1171              0.68      0.68      1.04      0.01         0.01
  YSB6556YSB1171              0.62      0.62      1.23      0.01         0.01
  
  
  ***************
  Pumping Summary
  ***************
  
  ---------------------------------------------------------------------------------------------------------
                                                  Min       Avg       Max     Total     Power    % Time Off
                        Percent   Number of      Flow      Flow      Flow    Volume     Usage    Pump Curve
  Pump                 Utilized   Start-Ups       LPS       LPS       LPS  10^6 ltr     Kw-hr    Low   High
  ---------------------------------------------------------------------------------------------------------
  CC-R1                   28.28          34      0.00    683.00    683.00     5.563     98.43    0.0   48.2
  CC-R2                   10.05          33      0.00    683.00    683.00     1.977     35.22    0.0   42.3
  CC-S1                   20.02          17      0.00    200.00    200.00     1.153      7.79    0.0    0.0
  CC-S2                   19.85          29      0.00    200.00    200.00     1.143      7.69    0.0    0.0
  JK-R1                    0.18           2      0.00   1000.00   1000.00     0.052      0.39    0.0    0.0
  JK-R2                   10.71          17      0.00   1000.00   1000.00     3.084     28.24    0.0    0.0
  JK-S                     3.27          30      0.00    300.00    300.00     0.282      5.45    0.0    0.0
  XR-1                    97.91           2      0.00     95.00     95.00     2.679      9.61    0.0    0.0
  XR-2                    93.94           2      0.00     95.00     95.00     2.570      8.77    0.0    0.0
  XR-3                     0.00           1      0.00     95.00     95.00     0.000      0.00    0.0    0.0
  XR-4                     0.00           1      0.00     95.00     95.00     0.000      0.00    0.0    0.0
  

  Analysis begun on:  Fri Jun 30 17:27:34 2023
  Analysis ended on:  Fri Jun 30 17:27:56 2023
  Total elapsed time: 00:00:22