
  OWA STORM WATER MANAGEMENT MODEL - VERSION v5.1.14 (OWA 2022-07-31)
  --------------------------------------------------------------

  WARNING 04: minimum elevation drop used for Conduit WS02004404WS02004405
  WARNING 03: negative offset ignored for Link YS02001904YS02001907
  
  *********************************************************
  NOTE: The summary statistics displayed in this report are
  based on results found at every computational time step,  
  not just on results from each reporting time step.
  *********************************************************
  
  ****************
  Analysis Options
  ****************
  Flow Units ............... LPS
  Process Models:
    Rainfall/Runoff ........ YES
    RDII ................... NO
    Snowmelt ............... NO
    Groundwater ............ NO
    Flow Routing ........... YES
    Ponding Allowed ........ NO
    Water Quality .......... NO
  Infiltration Method ...... HORTON
  Flow Routing Method ...... DYNWAVE
  Surcharge Method ......... EXTRAN
  Starting Date ............ 08/28/2015 08:00:00
  Ending Date .............. 08/28/2015 16:00:00
  Antecedent Dry Days ...... 8.0
  Report Time Step ......... 00:01:00
  Wet Time Step ............ 00:01:00
  Dry Time Step ............ 00:01:00
  Routing Time Step ........ 30.00 sec
  Variable Time Step ....... YES
  Maximum Trials ........... 8
  Number of Threads ........ 1
  Head Tolerance ........... 0.001500 m
  
  
  **************************        Volume         Depth
  Runoff Quantity Continuity     hectare-m            mm
  **************************     ---------       -------
  Initial LID Storage ......         0.072         1.184
  Total Precipitation ......         2.623        43.293
  Evaporation Loss .........         0.000         0.000
  Infiltration Loss ........         0.196         3.227
  Surface Runoff ...........         1.937        31.983
  Final Storage ............         0.563         9.288
  Continuity Error (%) .....        -0.049
  
  
  **************************        Volume        Volume
  Flow Routing Continuity        hectare-m      10^6 ltr
  **************************     ---------     ---------
  Dry Weather Inflow .......         0.630         6.296
  Wet Weather Inflow .......         1.937        19.374
  Groundwater Inflow .......         0.000         0.000
  RDII Inflow ..............         0.000         0.000
  External Inflow ..........         0.105         1.045
  External Outflow .........         2.105        21.054
  Flooding Loss ............         0.558         5.584
  Evaporation Loss .........         0.000         0.000
  Exfiltration Loss ........         0.000         0.000
  Initial Stored Volume ....         0.303         3.031
  Final Stored Volume ......         0.321         3.212
  Continuity Error (%) .....        -0.348
  
  
  *************************
  Highest Continuity Errors
  *************************
  Node WS02006256 (-10.04%)
  Node YS02001884 (5.23%)
  Node YS02001583 (-4.94%)
  Node HS02004842 (2.09%)
  Node YS02001774 (1.79%)
  
  
  ***************************
  Time-Step Critical Elements
  ***************************
  Link WS02006280WS02006229 (51.74%)
  Link WS02006252WS02006251 (18.12%)
  Link WS02006238WS02006235 (9.48%)
  Link WS02004404WS02004405 (5.70%)
  Link YS02001791YS02001793 (4.05%)
  
  
  ********************************
  Highest Flow Instability Indexes
  ********************************
  Link WS02006113WS02006111 (20)
  Link WS02006256WS02006235 (19)
  Link WS02006238WS02006235 (18)
  Link WS02006252WS02006251 (16)
  Link WS02004404WS02004405 (15)
  
  
  *************************
  Routing Time Step Summary
  *************************
  Minimum Time Step           :     0.01 sec
  Average Time Step           :     2.51 sec
  Maximum Time Step           :     6.46 sec
  Percent in Steady State     :    -0.00
  Average Iterations per Step :     3.22
  Percent Not Converging      :    11.66
  
  
  ***************************
  Subcatchment Runoff Summary
  ***************************
  
  ------------------------------------------------------------------------------------------------------------------------------
                            Total      Total      Total      Total     Imperv       Perv      Total       Total     Peak  Runoff
                           Precip      Runon       Evap      Infil     Runoff     Runoff     Runoff      Runoff   Runoff   Coeff
  Subcatchment                 mm         mm         mm         mm         mm         mm         mm    10^6 ltr      LPS
  ------------------------------------------------------------------------------------------------------------------------------
  sub0                      43.29       0.00       0.00       0.96      39.01       2.07      41.08        0.03    23.42   0.949
  sub1                      43.29       0.00       0.00       1.45      33.42       2.82      36.23        0.24   144.22   0.837
  sub10                     43.29       0.00       0.00       0.93      31.32       1.89      33.21        0.37   226.40   0.767
  sub11                     43.29       0.00       0.00       0.85      29.11       1.77      30.88        0.36   235.17   0.713
  sub12                     43.29       0.00       0.00       1.48      29.60       3.08      32.68        0.29   200.28   0.755
  sub14                     43.29       0.00       0.00       0.92      27.57       1.90      29.47        0.28   181.06   0.681
  sub15                     43.29       0.00       0.00       4.19      24.78       6.79      31.57        0.54   317.85   0.729
  sub16                     43.29       0.00       0.00       4.44      24.18       7.86      32.03        0.34   214.82   0.740
  sub17                     43.29       0.00       0.00       4.76      26.68       8.21      34.90        0.30   186.65   0.806
  sub2                      43.29       0.00       0.00       6.57      24.42       8.26      32.68        0.30   148.88   0.755
  sub22                     43.29       0.00       0.00       7.41      23.14      10.62      33.76        2.13  1163.43   0.780
  sub23                     43.29       0.00       0.00       5.58      23.83       8.87      32.70        1.56   917.42   0.755
  sub3                      43.29       0.00       0.00       7.00      24.18       7.70      31.88        0.72   320.07   0.736
  sub4                      43.29       0.00       0.00       1.59      32.88       2.63      35.50        0.74   349.77   0.820
  sub5                      43.29       0.00       0.00       0.83      32.33       1.69      34.02        0.39   233.63   0.786
  sub60                     43.29       0.00       0.00       1.32      28.47       2.69      31.16        0.41   271.40   0.720
  sub61                     43.29       0.00       0.00       2.03      28.45       3.99      32.44        0.60   394.52   0.749
  sub62                     43.29       0.00       0.00       0.90      30.32       1.83      32.15        0.88   541.41   0.743
  sub63                     43.29       0.00       0.00       3.72      24.37       6.56      30.92        0.70   441.20   0.714
  sub64                     43.29       0.00       0.00       1.79      27.74       3.27      31.01        0.74   439.82   0.716
  sub65                     43.29       0.00       0.00       1.64      29.93       2.99      32.92        0.91   513.24   0.760
  sub66                     43.29       0.00       0.00       4.33      23.54       5.62      29.16        1.36   653.86   0.674
  sub67                     43.29       0.00       0.00       0.89      31.10       1.90      32.99        0.61   423.62   0.762
  sub68                     43.29       0.00       0.00       1.56      27.46       3.06      30.52        0.84   536.66   0.705
  sub69                     43.29       0.00       0.00       1.41      29.08       3.74      32.82        1.22   665.99   0.758
  sub7                      43.29       0.00       0.00       0.98      29.55       2.04      31.59        0.11    71.10   0.730
  sub70                     43.29       0.00       0.00       4.72      23.28       7.33      30.62        0.88   379.01   0.707
  sub71                     43.29       0.00       0.00       0.83      27.54       1.65      29.19        0.76   446.81   0.674
  sub72                     43.29       0.00       0.00       0.79      29.74       1.53      31.27        0.43   228.98   0.722
  sub8                      43.29       0.00       0.00       0.96      28.72       1.98      30.70        0.20   127.35   0.709
  sub9                      43.29       0.00       0.00       0.93      27.84       1.92      29.76        0.14    92.76   0.687
  

  ***********************
  LID Performance Summary
  ***********************

  --------------------------------------------------------------------------------------------------------------------
                                         Total      Evap     Infil   Surface    Drain    Initial     Final  Continuity
                                        Inflow      Loss      Loss   Outflow   Outflow   Storage   Storage       Error
  Subcatchment      LID Control             mm        mm        mm        mm        mm        mm        mm           %
  --------------------------------------------------------------------------------------------------------------------
  sub1              GreenRoof            43.29      0.00      0.00      0.00      0.00      7.05     50.43       -0.17
  sub10             GreenRoof            43.29      0.00      0.00      0.00      0.00      7.05     50.43       -0.17
  sub11             GreenRoof            43.29      0.00      0.00      0.00      0.00      7.05     50.43       -0.17
  sub12             GreenRoof            43.29      0.00      0.00      0.00      0.00      7.05     50.43       -0.17
  sub14             GreenRoof            43.29      0.00      0.00      0.00      0.00      7.05     50.43       -0.17
  sub15             GreenRoof            43.29      0.00      0.00      0.00      0.00      7.05     50.43       -0.17
  sub16             GreenRoof            43.29      0.00      0.00      0.00      0.00      7.05     50.43       -0.17
  sub17             GreenRoof            43.29      0.00      0.00      0.00      0.00      7.05     50.43       -0.17
  sub2              GreenRoof            43.29      0.00      0.00      0.00      0.00      7.05     50.43       -0.17
  sub22             GreenRoof            43.29      0.00      0.00      0.00      0.00      7.05     50.43       -0.17
  sub23             GreenRoof            43.29      0.00      0.00      0.00      0.00      7.05     50.43       -0.17
  sub3              GreenRoof            43.29      0.00      0.00      0.00      0.00      7.05     50.43       -0.17
  sub4              GreenRoof            43.29      0.00      0.00      0.00      0.00      7.05     50.43       -0.17
  sub5              GreenRoof            43.29      0.00      0.00      0.00      0.00      7.05     50.43       -0.17
  sub60             GreenRoof            43.29      0.00      0.00      0.00      0.00      7.05     50.43       -0.17
  sub61             GreenRoof            43.29      0.00      0.00      0.00      0.00      7.05     50.43       -0.17
  sub62             GreenRoof            43.29      0.00      0.00      0.00      0.00      7.05     50.43       -0.17
  sub63             GreenRoof            43.29      0.00      0.00      0.00      0.00      7.05     50.43       -0.17
  sub64             GreenRoof            43.29      0.00      0.00      0.00      0.00      7.05     50.43       -0.17
  sub65             GreenRoof            43.29      0.00      0.00      0.00      0.00      7.05     50.43       -0.17
  sub66             GreenRoof            43.29      0.00      0.00      0.00      0.00      7.05     50.43       -0.17
  sub67             GreenRoof            43.29      0.00      0.00      0.00      0.00      7.05     50.43       -0.17
  sub68             GreenRoof            43.29      0.00      0.00      0.00      0.00      7.05     50.43       -0.17
  sub69             GreenRoof            43.29      0.00      0.00      0.00      0.00      7.05     50.43       -0.17
  sub7              GreenRoof            43.29      0.00      0.00      0.00      0.00      7.05     50.43       -0.17
  sub70             GreenRoof            43.29      0.00      0.00      0.00      0.00      7.05     50.43       -0.17
  sub71             GreenRoof            43.29      0.00      0.00      0.00      0.00      7.05     50.43       -0.17
  sub72             GreenRoof            43.29      0.00      0.00      0.00      0.00      7.05     50.43       -0.17
  sub8              GreenRoof            43.29      0.00      0.00      0.00      0.00      7.05     50.43       -0.17
  sub9              GreenRoof            43.29      0.00      0.00      0.00      0.00      7.05     50.43       -0.17
  
  ******************
  Node Depth Summary
  ******************
  
  ---------------------------------------------------------------------------------
                                 Average  Maximum  Maximum  Time of Max    Reported
                                   Depth    Depth      HGL   Occurrence   Max Depth
  Node                 Type       Meters   Meters   Meters  days hr:min      Meters
  ---------------------------------------------------------------------------------
  HS02004478           JUNCTION     0.19     1.58    10.81     0  02:13        1.46
  HS02004479           JUNCTION     0.27     1.70    10.90     0  02:13        1.64
  HS02004480           JUNCTION     0.23     1.67    10.92     0  02:13        1.60
  HS02004770           JUNCTION     0.24     1.42    11.25     0  02:10        1.42
  HS02004777           JUNCTION     0.26     1.48    11.28     0  02:10        1.48
  HS02004785           JUNCTION     0.16     1.49    11.39     0  02:10        1.49
  HS02004788           JUNCTION     0.12     1.42    11.32     0  02:09        1.42
  HS02004792           JUNCTION     0.17     1.60    11.12     0  02:10        1.60
  HS02004799           JUNCTION     0.29     1.76    10.97     0  02:13        1.75
  HS02004802           JUNCTION     0.28     1.78    10.91     0  02:13        1.57
  HS02004807           JUNCTION     0.25     1.91    11.08     0  02:13        1.56
  HS02004817           JUNCTION     0.55     2.39    11.24     0  02:13        1.90
  HS02004824           JUNCTION     0.12     1.97    11.37     0  02:13        1.34
  HS02004830           JUNCTION     0.12     1.98    11.45     0  02:13        1.28
  HS02004837           JUNCTION     0.10     1.95    11.53     0  02:13        1.17
  HS02004842           JUNCTION     0.39     2.22    11.49     0  02:13        1.47
  HS02004848           JUNCTION     0.08     2.03    11.63     0  02:13        1.13
  HS02004852           JUNCTION     0.08     2.12    11.63     0  02:13        1.18
  HS02004856           JUNCTION     0.14     2.07    11.50     0  02:13        1.23
  HS02004862           JUNCTION     0.10     2.00    11.38     0  02:13        1.23
  HS02004870           JUNCTION     0.09     2.03    11.32     0  02:13        1.78
  HS02004876           JUNCTION     0.14     2.00    11.03     0  02:13        1.40
  HS02004881           JUNCTION     0.08     1.73    10.76     0  02:13        1.26
  HS02004901           JUNCTION     0.25     1.42    11.24     0  02:10        1.42
  WS02001211           JUNCTION     0.63     0.80     5.64     0  02:17        0.80
  WS02001212           JUNCTION     0.37     0.56     5.63     0  02:16        0.56
  WS02001213           JUNCTION     0.58     0.86     5.62     0  02:16        0.86
  WS02003059           JUNCTION     0.65     0.93     5.61     0  02:17        0.93
  WS02003060           JUNCTION     0.37     0.67     5.61     0  02:17        0.67
  WS02003066           JUNCTION     0.22     0.45     6.00     0  02:15        0.45
  WS02003067           JUNCTION     0.53     0.88     6.20     0  02:12        0.88
  WS02003069           JUNCTION     0.42     0.76     5.35     0  02:18        0.76
  WS02003072           JUNCTION     0.48     0.80     5.17     0  02:18        0.80
  WS02003073           JUNCTION     0.29     0.51     4.57     0  02:19        0.51
  WS02004138           JUNCTION     0.13     0.14     7.39     0  00:29        0.14
  WS02004139           JUNCTION     0.56     0.73     5.64     0  02:18        0.73
  WS02004401           JUNCTION     0.73     1.76     7.76     0  02:13        1.76
  WS02004402           JUNCTION     0.75     1.71     7.67     0  02:13        1.71
  WS02004403           JUNCTION     0.75     1.64     7.57     0  02:13        1.64
  WS02004404           JUNCTION     0.82     1.66     7.51     0  02:13        1.65
  WS02004405           JUNCTION     0.81     1.61     7.46     0  02:14        1.61
  WS02004406           JUNCTION     0.80     1.51     7.34     0  02:14        1.50
  WS02004407           JUNCTION     0.24     0.86     7.17     0  02:13        0.86
  WS02004409           JUNCTION     0.50     1.34     7.11     0  02:13        1.34
  WS02004410           JUNCTION     0.51     1.26     6.98     0  02:14        1.25
  WS02004411           JUNCTION     0.52     1.18     6.86     0  02:14        1.17
  WS02004412           JUNCTION     0.53     1.08     6.72     0  02:14        1.08
  WS02004413           JUNCTION     0.67     1.13     6.60     0  02:15        1.13
  WS02006109           JUNCTION     0.91     2.64     9.26     0  02:10        2.64
  WS02006110           JUNCTION     0.85     2.36     8.94     0  02:13        2.35
  WS02006111           JUNCTION     0.37     1.64     8.34     0  02:14        1.62
  WS02006112           JUNCTION     0.92     2.25     8.13     0  02:12        2.24
  WS02006113           JUNCTION     0.45     1.75     8.65     0  02:13        1.75
  WS02006115           JUNCTION     0.64     1.84     7.98     0  02:12        1.83
  WS02006116           JUNCTION     0.71     1.84     7.88     0  02:13        1.83
  WS02006228           JUNCTION     0.95     3.03     9.68     0  02:13        2.99
  WS02006229           JUNCTION     0.95     3.23     9.93     0  02:13        3.16
  WS02006230           JUNCTION     0.89     2.65     9.39     0  02:07        2.65
  WS02006231           JUNCTION     0.63     2.19     9.31     0  02:14        2.19
  WS02006232           JUNCTION     0.72     2.18     9.22     0  02:07        2.18
  WS02006234           JUNCTION     0.61     1.96     9.12     0  02:06        1.96
  WS02006235           JUNCTION     0.62     1.95     9.12     0  02:06        1.95
  WS02006238           JUNCTION     0.64     1.96     9.11     0  02:06        1.96
  WS02006239           JUNCTION     0.58     1.82     9.03     0  02:06        1.82
  WS02006240           JUNCTION     0.53     1.66     8.95     0  02:06        1.66
  WS02006242           JUNCTION     0.57     1.55     8.82     0  02:04        1.55
  WS02006243           JUNCTION     0.47     1.44     8.86     0  02:04        1.44
  WS02006245           JUNCTION     0.45     1.31     8.79     0  03:10        1.28
  WS02006247           JUNCTION     0.46     1.26     8.76     0  02:04        1.26
  WS02006248           JUNCTION     0.41     1.10     8.69     0  02:01        1.10
  WS02006249           JUNCTION     0.43     1.09     8.69     0  02:01        1.09
  WS02006251           JUNCTION     0.49     2.17     9.84     0  02:12        2.06
  WS02006252           JUNCTION     0.32     1.50     9.74     0  00:00        1.50
  WS02006253           JUNCTION     0.55     3.00    10.64     0  02:12        2.59
  WS02006256           JUNCTION     0.92     2.35     9.28     0  00:00        2.35
  WS02006280           JUNCTION     0.25     1.75    10.02     0  02:13        1.67
  WS02006284           JUNCTION     0.52     1.95    10.35     0  02:13        1.85
  WS02006287           JUNCTION     0.25     1.74    10.69     0  02:13        1.62
  WSF200               JUNCTION     0.22     0.51     5.74     0  02:15        0.51
  YS02001580           JUNCTION     0.05     1.05     9.59     0  02:10        0.76
  YS02001583           JUNCTION     0.08     1.13     9.63     0  02:10        0.82
  YS02001586           JUNCTION     0.14     1.13     9.30     0  02:10        1.13
  YS02001590           JUNCTION     0.23     1.40     9.26     0  02:08        1.40
  YS02001593           JUNCTION     0.16     1.34     9.21     0  02:08        1.29
  YS02001596           JUNCTION     0.23     1.71     9.13     0  02:08        1.65
  YS02001600           JUNCTION     0.29     1.87     9.00     0  02:08        1.86
  YS02001601           JUNCTION     0.48     2.06     8.90     0  02:08        2.06
  YS02001602           JUNCTION     0.40     1.87     8.77     0  02:09        1.87
  YS02001605           JUNCTION     0.37     1.78     8.68     0  02:10        1.77
  YS02001607           JUNCTION     0.37     1.65     8.49     0  02:20        1.64
  YS02001610           JUNCTION     0.41     1.68     8.48     0  02:10        1.68
  YS02001613           JUNCTION     0.37     1.66     8.50     0  02:10        1.64
  YS02001616           JUNCTION     0.30     1.58     8.50     0  02:10        1.57
  YS02001619           JUNCTION     0.28     1.57     8.50     0  02:12        1.56
  YS02001622           JUNCTION     0.27     1.56     8.46     0  02:12        1.55
  YS02001625           JUNCTION     0.53     1.78     8.38     0  02:10        1.78
  YS02001629           JUNCTION     0.38     1.85     8.40     0  02:10        1.85
  YS02001633           JUNCTION     0.46     1.95     8.41     0  02:12        1.93
  YS02001641           JUNCTION     0.44     1.79     8.23     0  02:16        1.79
  YS02001644           JUNCTION     0.43     1.73     8.16     0  02:16        1.72
  YS02001647           JUNCTION     0.22     1.42     8.03     0  02:16        1.40
  YS02001649           JUNCTION     0.25     1.53     7.92     0  02:16        1.48
  YS02001652           JUNCTION     0.14     1.41     8.01     0  02:16        1.27
  YS02001655           JUNCTION     0.10     1.26     8.11     0  02:14        1.04
  YS02001658           JUNCTION     0.07     0.78     7.93     0  02:15        0.75
  YS02001661           JUNCTION     0.12     0.47     7.88     0  02:16        0.40
  YS02001664           JUNCTION     0.05     0.25     8.18     0  02:14        0.25
  YS02001745           JUNCTION     0.04     0.22     7.74     0  02:13        0.22
  YS02001748           JUNCTION     0.06     0.66     7.73     0  02:15        0.61
  YS02001751           JUNCTION     0.07     0.85     7.73     0  02:15        0.83
  YS02001754           JUNCTION     0.12     1.41     8.02     0  02:15        1.10
  YS02001757           JUNCTION     0.26     1.54     7.80     0  02:15        1.42
  YS02001759           JUNCTION     0.20     1.50     7.86     0  02:14        1.50
  YS02001762           JUNCTION     0.20     1.61     8.01     0  02:14        1.61
  YS02001765           JUNCTION     0.18     1.65     8.10     0  02:14        1.65
  YS02001767           JUNCTION     0.18     1.69     8.18     0  02:14        1.69
  YS02001770           JUNCTION     0.19     1.75     8.25     0  02:14        1.75
  YS02001774           JUNCTION     0.26     1.85     8.27     0  02:13        1.83
  YS02001779           JUNCTION     0.09     1.68     8.37     0  02:13        1.56
  YS02001783           JUNCTION     0.20     1.21     7.36     0  02:14        1.20
  YS02001784           JUNCTION     0.22     1.10     7.17     0  02:14        1.09
  YS02001786           JUNCTION     0.19     0.87     6.90     0  02:14        0.86
  YS02001788           JUNCTION     0.13     0.62     6.59     0  02:14        0.61
  YS02001790           JUNCTION     0.16     0.72     6.36     0  02:15        0.72
  YS02001791           JUNCTION     0.10     0.43     5.90     0  02:15        0.43
  YS02001793           JUNCTION     0.05     0.22     5.05     0  02:20        0.22
  YS02001882           JUNCTION     0.25     1.65     8.37     0  02:14        1.57
  YS02001884           JUNCTION     0.34     1.74     8.36     0  02:14        1.67
  YS02001887           JUNCTION     0.41     1.81     8.35     0  02:14        1.75
  YS02001890           JUNCTION     0.44     1.81     8.32     0  02:14        1.76
  YS02001895           JUNCTION     0.22     1.57     8.32     0  02:14        1.52
  YS02001898           JUNCTION     0.23     1.58     8.31     0  02:14        1.52
  YS02001901           JUNCTION     0.34     1.69     8.30     0  02:14        1.66
  YS02001904           JUNCTION     0.32     1.64     8.27     0  02:14        1.62
  YS02001907           JUNCTION     0.63     1.96     8.25     0  02:14        1.96
  YS02001910           JUNCTION     0.43     1.98     8.49     0  02:14        1.80
  YS02001915           JUNCTION     0.25     1.93     8.65     0  02:14        1.63
  YS02001918           JUNCTION     0.11     1.81     8.88     0  02:14        1.32
  YS02001920           JUNCTION     0.19     2.08     9.08     0  02:14        1.40
  YS02001923           JUNCTION     0.08     1.97     9.23     0  02:14        1.18
  YS02001926           JUNCTION     0.12     1.87     9.31     0  02:14        1.00
  YS02001929           JUNCTION     0.06     1.78     9.47     0  02:14        0.70
  YS02006553           JUNCTION     0.64     1.96     8.24     0  02:14        1.96
  YS02006556           JUNCTION     0.61     1.92     8.23     0  02:14        1.90
  YS02006558           JUNCTION     0.65     1.95     8.22     0  02:14        1.94
  YS02006561           JUNCTION     0.12     0.88     7.54     0  02:14        0.86
  YS02163301           JUNCTION     0.40     1.88     8.40     0  02:12        1.87
  YS02163601           JUNCTION     0.50     1.92     8.32     0  02:16        1.92
  YS02164001           JUNCTION     0.43     1.81     8.27     0  02:16        1.81
  YSB1154              JUNCTION     0.40     1.87    10.93     0  02:10        1.83
  YSB1171              JUNCTION     0.54     1.95    10.85     0  02:13        1.95
  YSB1174              JUNCTION     0.35     1.77    10.88     0  02:10        1.76
  YSB6556              JUNCTION     0.30     1.74    10.91     0  02:10        1.70
  CC-1                 OUTFALL      0.00     0.00     0.00     0  00:00        0.00
  CC-2                 OUTFALL      0.00     0.00     0.00     0  00:00        0.00
  JK-1                 OUTFALL      0.00     0.00     0.00     0  00:00        0.00
  JK-2                 OUTFALL      0.00     0.00     0.00     0  00:00        0.00
  WSC                  OUTFALL      0.29     0.51     1.18     0  02:19        0.51
  CC-storage           STORAGE      0.70     1.40     6.90     0  02:37        1.40
  JK-storage           STORAGE      1.45     3.61     4.41     0  02:25        3.61
  XR-storage           STORAGE      7.85     9.26     7.26     0  08:00        9.26
  
  
  *******************
  Node Inflow Summary
  *******************
  
  -------------------------------------------------------------------------------------------------
                                  Maximum  Maximum                  Lateral       Total        Flow
                                  Lateral    Total  Time of Max      Inflow      Inflow     Balance
                                   Inflow   Inflow   Occurrence      Volume      Volume       Error
  Node                 Type           LPS      LPS  days hr:min    10^6 ltr    10^6 ltr     Percent
  -------------------------------------------------------------------------------------------------
  HS02004478           JUNCTION      0.00  2205.19     0  02:14           0        6.29      -0.015
  HS02004479           JUNCTION      0.00   431.12     0  02:13           0        0.67       0.130
  HS02004480           JUNCTION      0.00  2118.03     0  02:11           0        4.97       0.046
  HS02004770           JUNCTION    917.42   917.42     0  02:14        1.56        1.77       0.170
  HS02004777           JUNCTION      0.03   757.81     0  02:09    0.000864        1.51       0.337
  HS02004785           JUNCTION      0.15   773.37     0  02:09     0.00432        1.51       0.028
  HS02004788           JUNCTION    319.52   834.83     0  02:09       0.591         2.1      -0.005
  HS02004792           JUNCTION   1163.71  1853.73     0  02:14        2.14        4.24       0.010
  HS02004799           JUNCTION    181.06  1774.58     0  02:11       0.281        4.32       0.060
  HS02004802           JUNCTION      0.00   494.02     0  02:14           0        1.35       0.298
  HS02004807           JUNCTION    235.17   493.00     0  02:14       0.359        1.39       0.293
  HS02004817           JUNCTION      0.60   411.00     0  02:10      0.0173        1.09       1.529
  HS02004824           JUNCTION    349.82   660.82     0  02:10       0.742        1.27       0.074
  HS02004830           JUNCTION      0.15   663.56     0  02:10     0.00432       0.717       0.160
  HS02004837           JUNCTION    232.75   847.26     0  02:10       0.549       0.941       0.077
  HS02004842           JUNCTION      0.00   844.96     0  02:11           0       0.621       2.133
  HS02004848           JUNCTION    320.07  1085.14     0  02:11       0.718        1.18       0.012
  HS02004852           JUNCTION      0.00  1065.68     0  02:12           0        1.04      -0.015
  HS02004856           JUNCTION     92.76  1168.63     0  02:12       0.143        1.19       0.082
  HS02004862           JUNCTION    149.08  1270.77     0  02:13        0.31        1.49      -0.011
  HS02004870           JUNCTION    127.35  1351.71     0  02:12       0.196        1.69       0.021
  HS02004876           JUNCTION    144.22  1393.73     0  02:12       0.241        1.93       0.014
  HS02004881           JUNCTION     71.10  1395.60     0  02:13       0.106        2.04       0.019
  HS02004901           JUNCTION    214.82   426.78     0  02:16       0.335       0.452       0.396
  WS02001211           JUNCTION      7.35   204.39     0  02:43       0.212        5.44       0.612
  WS02001212           JUNCTION      0.00   211.26     0  02:42           0        5.41       0.290
  WS02001213           JUNCTION      0.00   216.37     0  02:42           0        5.39       0.332
  WS02003059           JUNCTION      0.00   221.65     0  02:41           0        5.38       0.596
  WS02003060           JUNCTION     16.53  1462.21     0  02:17       0.476        12.5       0.119
  WS02003066           JUNCTION      0.00  1259.24     0  02:14           0        6.67       0.023
  WS02003067           JUNCTION      0.00  1259.32     0  02:14           0        6.67       0.068
  WS02003069           JUNCTION      0.32  1462.57     0  02:17     0.00922        12.5       0.125
  WS02003072           JUNCTION      0.00  1462.57     0  02:18           0        12.5       0.169
  WS02003073           JUNCTION      1.82  1464.39     0  02:18      0.0524        12.5       0.176
  WS02004138           JUNCTION      0.00   380.00     0  00:00           0        5.25       0.054
  WS02004139           JUNCTION      0.32   191.10     0  00:29     0.00924        5.26       0.508
  WS02004401           JUNCTION      0.00  1259.01     0  02:13           0        6.78       0.160
  WS02004402           JUNCTION      0.00  1259.39     0  02:13           0        6.77       0.162
  WS02004403           JUNCTION      0.00  1259.16     0  02:14           0        6.76       0.156
  WS02004404           JUNCTION      0.16  1259.55     0  02:13     0.00467        6.75       0.129
  WS02004405           JUNCTION      0.04  1260.63     0  02:13      0.0011        6.74       0.189
  WS02004406           JUNCTION      0.00  1259.36     0  02:12           0        6.73       0.321
  WS02004407           JUNCTION      0.00  1259.31     0  02:14           0        6.71       0.025
  WS02004409           JUNCTION      0.00  1259.61     0  02:14           0        6.71       0.049
  WS02004410           JUNCTION      0.00  1259.53     0  02:14           0        6.71       0.075
  WS02004411           JUNCTION      0.00  1260.62     0  02:14           0         6.7       0.096
  WS02004412           JUNCTION      0.00  1259.50     0  02:14           0        6.69       0.124
  WS02004413           JUNCTION      0.00  1259.63     0  02:14           0        6.69       0.213
  WS02006109           JUNCTION      1.23  1240.54     0  02:14      0.0354         6.6       0.166
  WS02006110           JUNCTION      0.00  1117.64     0  02:22           0        6.52       0.129
  WS02006111           JUNCTION      0.00  1117.71     0  02:22           0        6.51       0.016
  WS02006112           JUNCTION    186.65  1259.02     0  02:13       0.299        6.81       0.282
  WS02006113           JUNCTION      0.00  1117.87     0  02:22           0        6.52       0.029
  WS02006115           JUNCTION      0.00  1259.09     0  02:13           0        6.79       0.101
  WS02006116           JUNCTION      0.00  1259.35     0  02:13           0        6.79       0.083
  WS02006228           JUNCTION      0.00  1239.68     0  02:14           0        6.57       0.081
  WS02006229           JUNCTION      0.00  2208.38     0  02:14           0        7.95       0.107
  WS02006230           JUNCTION     10.28   977.74     0  02:14       0.296        3.09       0.306
  WS02006231           JUNCTION      0.00   473.47     0  03:10           0        2.33      -0.203
  WS02006232           JUNCTION      0.00   467.52     0  03:10           0        2.33       0.348
  WS02006234           JUNCTION      0.00   455.19     0  03:10           0        2.32      -0.457
  WS02006235           JUNCTION      0.00   482.44     0  03:30           0        2.34       0.620
  WS02006238           JUNCTION      0.00   406.12     0  03:10           0        2.12      -0.062
  WS02006239           JUNCTION      0.00   406.61     0  03:10           0        2.06      -0.071
  WS02006240           JUNCTION      0.00   405.14     0  03:10           0        2.02       0.024
  WS02006242           JUNCTION      0.00   405.84     0  03:10           0        2.01      -0.024
  WS02006243           JUNCTION      0.00   405.79     0  03:10           0        1.78      -0.058
  WS02006245           JUNCTION      0.00   404.68     0  03:10           0        1.79       0.490
  WS02006247           JUNCTION      0.00   405.16     0  03:10           0        1.78      -0.011
  WS02006248           JUNCTION      0.00   407.04     0  03:10           0        1.93      -0.017
  WS02006249           JUNCTION      0.00  1326.57     0  02:13           0        3.89       0.163
  WS02006251           JUNCTION      0.08  1426.60     0  02:13     0.00222        3.92       0.015
  WS02006252           JUNCTION      0.00   400.00     0  00:00           0        1.88      -0.920
  WS02006253           JUNCTION     23.42  1422.46     0  02:13      0.0333         2.1       0.005
  WS02006256           JUNCTION      0.00   300.00     0  00:00           0       0.306      -9.123
  WS02006280           JUNCTION      0.00  2206.38     0  02:14           0        6.27       0.021
  WS02006284           JUNCTION      0.10  2206.16     0  02:14     0.00275        6.27      -0.000
  WS02006287           JUNCTION      0.00  2206.57     0  02:15           0        6.27       0.013
  WSF200               JUNCTION      0.00  1259.01     0  02:14           0        6.67       0.013
  YS02001580           JUNCTION      0.00   110.77     0  02:10           0     0.00397      -4.964
  YS02001583           JUNCTION      0.00   169.99     0  02:10           0      0.0149      -4.710
  YS02001586           JUNCTION    379.01   379.08     0  02:15       0.885       0.896       0.144
  YS02001590           JUNCTION      0.00   317.82     0  02:20           0        0.86      -0.050
  YS02001593           JUNCTION      0.00   317.89     0  02:20           0       0.861       0.009
  YS02001596           JUNCTION      0.00   317.85     0  02:19           0        0.86       0.007
  YS02001600           JUNCTION      0.00   317.95     0  02:20           0        0.86       0.010
  YS02001601           JUNCTION    665.99   983.56     0  02:14        1.21        2.08       0.037
  YS02001602           JUNCTION      0.00   518.76     0  02:09           0        1.67       0.017
  YS02001605           JUNCTION      0.00   518.59     0  02:09           0        1.63       0.014
  YS02001607           JUNCTION      0.00   518.36     0  02:09           0        1.63       0.115
  YS02001610           JUNCTION      0.00   520.75     0  02:09           0        1.63       0.138
  YS02001613           JUNCTION      0.00   522.87     0  02:09           0        1.56       0.109
  YS02001616           JUNCTION      0.00   518.84     0  02:09           0        1.56       0.029
  YS02001619           JUNCTION    653.86   936.84     0  02:12        1.36        2.92       0.003
  YS02001622           JUNCTION      0.00   936.08     0  02:12           0        2.92       0.003
  YS02001625           JUNCTION      0.00   936.08     0  02:12           0        2.92       0.306
  YS02001629           JUNCTION      0.00   936.12     0  02:12           0        2.85       0.011
  YS02001633           JUNCTION    513.44  1406.50     0  02:12       0.912        3.76       0.090
  YS02001641           JUNCTION      0.00  1406.32     0  02:12           0        3.76       0.075
  YS02001644           JUNCTION    439.86  1818.64     0  02:12       0.746         4.5       0.072
  YS02001647           JUNCTION      0.00  1822.33     0  02:12           0        4.49       0.006
  YS02001649           JUNCTION      0.00  2106.62     0  02:12           0         5.2       0.005
  YS02001652           JUNCTION      0.00   488.80     0  02:17           0       0.706      -0.168
  YS02001655           JUNCTION      0.15   511.62     0  02:16     0.00443       0.706       0.065
  YS02001658           JUNCTION      0.00   538.47     0  02:16           0       0.702      -0.005
  YS02001661           JUNCTION      0.00   441.09     0  02:14           0       0.702       0.037
  YS02001664           JUNCTION    441.20   441.20     0  02:14       0.702       0.702      -0.005
  YS02001745           JUNCTION    271.41   271.41     0  02:13        0.41        0.41       0.260
  YS02001748           JUNCTION      0.04   272.01     0  02:13      0.0013        0.41      -0.344
  YS02001751           JUNCTION      0.01   397.25     0  02:14    0.000317       0.414       0.234
  YS02001754           JUNCTION      0.26   374.27     0  02:15     0.00749       0.422      -0.438
  YS02001757           JUNCTION      0.00  3003.31     0  02:16           0        7.12       0.073
  YS02001759           JUNCTION    394.56  1024.05     0  02:14       0.596         1.5      -0.006
  YS02001762           JUNCTION      0.00   626.77     0  02:14           0       0.899      -0.000
  YS02001765           JUNCTION      0.00   616.51     0  02:14           0         0.9       0.018
  YS02001767           JUNCTION      0.54   607.85     0  02:14      0.0154         0.9       0.007
  YS02001770           JUNCTION    541.56   612.57     0  02:14       0.885       0.927       0.006
  YS02001774           JUNCTION      0.00   263.06     0  02:13           0       0.062       1.820
  YS02001779           JUNCTION      0.01   269.56     0  02:13    0.000144       0.019      -2.245
  YS02001783           JUNCTION      0.00  1142.88     0  02:14           0        2.62       0.009
  YS02001784           JUNCTION      1.06  1143.89     0  02:15      0.0305        2.65       0.018
  YS02001786           JUNCTION      0.06  1143.43     0  02:14     0.00162        2.65       0.024
  YS02001788           JUNCTION      0.07  1143.90     0  02:14     0.00204        2.65       0.011
  YS02001790           JUNCTION      0.15  1154.26     0  02:16     0.00446        2.66       0.016
  YS02001791           JUNCTION      0.00  1270.41     0  02:15           0        2.66      -0.007
  YS02001793           JUNCTION      0.00  1226.12     0  02:15           0        2.66       0.007
  YS02001882           JUNCTION      0.00    52.94     0  02:11           0      0.0124       5.310
  YS02001884           JUNCTION      0.00    67.96     0  02:11           0      0.0482       5.522
  YS02001887           JUNCTION    424.07   427.78     0  02:13       0.627        0.66       0.677
  YS02001890           JUNCTION      0.00   430.80     0  02:12           0       0.619       0.828
  YS02001895           JUNCTION      0.00   436.97     0  02:12           0       0.614       0.237
  YS02001898           JUNCTION      0.00   445.62     0  02:12           0       0.612       0.058
  YS02001901           JUNCTION      0.00   460.61     0  02:12           0       0.615       0.520
  YS02001904           JUNCTION      0.00   464.13     0  02:12           0       0.619       0.463
  YS02001907           JUNCTION      0.00  1272.81     0  02:15           0        1.89       0.953
  YS02001910           JUNCTION      0.00   896.86     0  02:15           0        1.28       0.559
  YS02001915           JUNCTION    446.83   895.65     0  02:15       0.764        1.31       0.113
  YS02001918           JUNCTION      0.00   458.02     0  02:15           0       0.574       0.026
  YS02001920           JUNCTION      2.87   457.22     0  02:15      0.0827       0.557       0.196
  YS02001923           JUNCTION      0.04   473.02     0  02:14     0.00109        0.46      -0.242
  YS02001926           JUNCTION      0.05   533.60     0  02:14      0.0015       0.442      -0.321
  YS02001929           JUNCTION    228.98   333.06     0  02:13        0.43       0.432      -0.086
  YS02006553           JUNCTION      0.00   800.72     0  02:20           0         1.8       0.664
  YS02006556           JUNCTION      0.00   801.40     0  02:20           0        1.81       0.448
  YS02006558           JUNCTION    537.54  1143.25     0  02:14       0.865        2.65       0.132
  YS02006561           JUNCTION      0.00  1142.63     0  02:14           0        2.62       0.001
  YS02163301           JUNCTION      0.00   936.33     0  02:11           0        2.85       0.052
  YS02163601           JUNCTION      0.11  1405.85     0  02:12     0.00317        3.76       0.127
  YS02164001           JUNCTION      0.00  1406.11     0  02:12           0        3.76       0.061
  YSB1154              JUNCTION    233.63   233.63     0  02:14       0.385       0.386       0.374
  YSB1171              JUNCTION      0.00   431.74     0  02:13           0       0.679       0.931
  YSB1174              JUNCTION    200.28   200.28     0  02:13       0.286       0.286       0.434
  YSB6556              JUNCTION      0.00   233.73     0  02:13           0       0.387       0.296
  CC-1                 OUTFALL       0.00   683.00     0  00:00           0        4.75       0.000
  CC-2                 OUTFALL       0.00   683.00     0  00:00           0        1.35       0.000
  JK-1                 OUTFALL       0.00  1000.00     0  00:00           0      0.0484       0.000
  JK-2                 OUTFALL       0.00  1000.00     0  00:00           0        2.43       0.000
  WSC                  OUTFALL       0.00  1464.29     0  02:19           0        12.5       0.000
  CC-storage           STORAGE       0.00  3004.98     0  02:16           0        9.34      -0.327
  JK-storage           STORAGE       0.00  1225.86     0  02:15           0        2.81      -0.621
  XR-storage           STORAGE     200.00   200.00     0  00:00        5.76        6.36       0.001
  
  
  **********************
  Node Surcharge Summary
  **********************
  
  Surcharging occurs when water rises above the top of the highest conduit.
  ---------------------------------------------------------------------
                                               Max. Height   Min. Depth
                                   Hours       Above Crown    Below Rim
  Node                 Type      Surcharged         Meters       Meters
  ---------------------------------------------------------------------
  HS02004478           JUNCTION        0.25          0.657        0.283
  HS02004479           JUNCTION        0.36          0.896        0.154
  HS02004480           JUNCTION        0.40          0.964        0.136
  HS02004770           JUNCTION        0.32          0.720        0.000
  HS02004777           JUNCTION        0.32          0.780        0.000
  HS02004785           JUNCTION        0.28          0.790        0.000
  HS02004788           JUNCTION        0.27          0.720        0.000
  HS02004792           JUNCTION        0.37          0.900        0.000
  HS02004799           JUNCTION        0.48          1.060        0.000
  HS02004802           JUNCTION        0.40          1.067        0.143
  HS02004807           JUNCTION        0.39          1.209        0.011
  HS02004817           JUNCTION        0.87          1.691        0.049
  HS02004824           JUNCTION        0.27          1.267        0.043
  HS02004830           JUNCTION        0.24          1.281        0.049
  HS02004837           JUNCTION        0.21          1.245        0.095
  HS02004842           JUNCTION        0.33          1.520        0.000
  HS02004848           JUNCTION        0.18          1.332        0.038
  HS02004852           JUNCTION        0.20          1.420        0.000
  HS02004856           JUNCTION        0.18          1.300        0.000
  HS02004862           JUNCTION        0.21          1.300        0.000
  HS02004870           JUNCTION        0.23          1.332        0.068
  HS02004876           JUNCTION        0.29          1.303        0.257
  HS02004881           JUNCTION        0.27          1.031        0.419
  HS02004901           JUNCTION        0.33          0.720        0.000
  WS02004401           JUNCTION        1.21          0.765        0.895
  WS02004402           JUNCTION        1.23          0.711        1.029
  WS02004403           JUNCTION        1.23          0.643        1.387
  WS02004404           JUNCTION        1.35          0.660        2.120
  WS02004405           JUNCTION        1.34          0.613        2.187
  WS02004406           JUNCTION        1.32          0.510        1.940
  WS02004409           JUNCTION        0.63          0.339        2.021
  WS02004410           JUNCTION        0.61          0.256        2.284
  WS02004411           JUNCTION        0.57          0.179        2.351
  WS02004412           JUNCTION        0.50          0.083        2.227
  WS02004413           JUNCTION        0.89          0.132        2.068
  WS02006109           JUNCTION        1.75          1.820        0.000
  WS02006110           JUNCTION        1.42          1.447        0.403
  WS02006111           JUNCTION        0.83          0.827        1.043
  WS02006112           JUNCTION        1.51          1.247        0.433
  WS02006113           JUNCTION        0.85          0.954        0.976
  WS02006115           JUNCTION        1.15          0.834        1.416
  WS02006116           JUNCTION        1.18          0.782        1.508
  WS02006228           JUNCTION        1.74          2.200        0.000
  WS02006229           JUNCTION        0.60          1.052        0.018
  WS02006230           JUNCTION        1.33          1.570        0.000
  WS02006231           JUNCTION        1.34          1.479        0.051
  WS02006232           JUNCTION        1.51          1.480        0.000
  WS02006234           JUNCTION        1.35          1.240        0.000
  WS02006235           JUNCTION        1.39          1.244        0.046
  WS02006238           JUNCTION        1.41          1.245        0.185
  WS02006239           JUNCTION        1.34          1.084        0.206
  WS02006240           JUNCTION        1.32          0.947        0.443
  WS02006242           JUNCTION        1.35          0.820        0.000
  WS02006243           JUNCTION        1.29          0.726        0.044
  WS02006245           JUNCTION        1.28          0.597        0.253
  WS02006247           JUNCTION        1.28          0.554        0.206
  WS02006248           JUNCTION        1.26          0.380        0.000
  WS02006249           JUNCTION        1.26          0.390        0.000
  WS02006251           JUNCTION        1.21          1.144        0.036
  WS02006252           JUNCTION        1.36          1.100        0.000
  WS02006253           JUNCTION        1.22          1.959        0.521
  WS02006256           JUNCTION        6.79          2.050        0.000
  WS02006280           JUNCTION        0.49          0.704        0.076
  WS02006284           JUNCTION        0.42          0.671        0.129
  WS02006287           JUNCTION        0.34          0.735        0.155
  YS02001580           JUNCTION        0.26          0.450        0.000
  YS02001583           JUNCTION        0.27          0.490        0.010
  YS02001586           JUNCTION        0.38          0.510        0.000
  YS02001590           JUNCTION        0.44          0.750        0.000
  YS02001593           JUNCTION        0.44          0.725        0.115
  YS02001596           JUNCTION        0.53          0.982        0.088
  YS02001600           JUNCTION        0.65          1.190        0.000
  YS02001601           JUNCTION        1.00          1.440        0.000
  YS02001602           JUNCTION        0.88          1.270        0.000
  YS02001605           JUNCTION        0.82          1.176        0.004
  YS02001607           JUNCTION        0.40          0.645        0.035
  YS02001610           JUNCTION        0.42          0.680        0.000
  YS02001613           JUNCTION        0.39          0.656        0.044
  YS02001616           JUNCTION        0.35          0.585        0.025
  YS02001619           JUNCTION        0.34          0.573        0.037
  YS02001622           JUNCTION        0.34          0.555        0.065
  YS02001625           JUNCTION        0.49          0.780        0.000
  YS02001629           JUNCTION        0.28          0.470        0.000
  YS02001633           JUNCTION        0.50          0.932        0.128
  YS02001641           JUNCTION        0.42          0.790        0.310
  YS02001644           JUNCTION        0.38          0.727        0.193
  YS02001647           JUNCTION        0.20          0.422        0.478
  YS02001649           JUNCTION        0.26          0.531        0.519
  YS02001652           JUNCTION        0.12          0.385        0.745
  YS02001655           JUNCTION        0.02          0.261        0.939
  YS02001754           JUNCTION        0.03          0.364        0.786
  YS02001757           JUNCTION        0.28          0.539        0.671
  YS02001759           JUNCTION        0.21          0.498        0.712
  YS02001762           JUNCTION        0.19          0.609        0.541
  YS02001765           JUNCTION        0.15          0.652        0.448
  YS02001767           JUNCTION        0.14          0.688        0.342
  YS02001770           JUNCTION        0.12          0.724        0.196
  YS02001774           JUNCTION        0.18          0.850        0.200
  YS02001779           JUNCTION        0.04          0.680        0.000
  YS02001783           JUNCTION        0.26          0.415        1.185
  YS02001784           JUNCTION        0.24          0.302        1.188
  YS02001786           JUNCTION        0.15          0.067        1.363
  YS02001882           JUNCTION        0.22          0.650        0.180
  YS02001884           JUNCTION        0.23          0.683        0.187
  YS02001887           JUNCTION        0.25          0.758        0.192
  YS02001890           JUNCTION        0.26          0.760        0.000
  YS02001895           JUNCTION        0.21          0.568        0.182
  YS02001898           JUNCTION        0.20          0.550        0.190
  YS02001901           JUNCTION        0.24          0.691        0.179
  YS02001904           JUNCTION        0.23          0.644        0.206
  YS02001907           JUNCTION        0.44          0.950        0.000
  YS02001910           JUNCTION        0.28          0.982        0.118
  YS02001915           JUNCTION        0.21          0.932        0.068
  YS02001918           JUNCTION        0.14          0.810        0.000
  YS02001920           JUNCTION        0.15          1.076        0.064
  YS02001923           JUNCTION        0.01          0.756        0.064
  YS02001926           JUNCTION        0.01          0.866        0.034
  YS02001929           JUNCTION        0.01          0.780        0.000
  YS02006553           JUNCTION        0.45          0.960        0.230
  YS02006556           JUNCTION        0.36          0.876        0.474
  YS02006558           JUNCTION        0.35          0.849        0.551
  YS02006561           JUNCTION        0.11          0.080        1.070
  YS02163301           JUNCTION        0.49          0.884        0.146
  YS02163601           JUNCTION        0.53          0.918        0.162
  YS02164001           JUNCTION        0.43          0.815        0.285
  YSB1154              JUNCTION        0.57          1.173        0.227
  YSB1171              JUNCTION        0.57          1.100        0.000
  YSB1174              JUNCTION        0.51          1.071        0.179
  YSB6556              JUNCTION        0.46          1.037        0.063
  
  
  *********************
  Node Flooding Summary
  *********************
  
  Flooding refers to all water that overflows a node, whether it ponds or not.
  --------------------------------------------------------------------------
                                                             Total   Maximum
                                 Maximum   Time of Max       Flood    Ponded
                        Hours       Rate    Occurrence      Volume     Depth
  Node                 Flooded       LPS   days hr:min    10^6 ltr    Meters
  --------------------------------------------------------------------------
  HS02004770              0.16    406.67      0  02:13       0.140     0.000
  HS02004777              0.01     69.59      0  02:10       0.001     0.000
  HS02004785              0.01    164.16      0  02:10       0.001     0.000
  HS02004788              0.01    202.62      0  02:09       0.001     0.000
  HS02004792              0.16    647.96      0  02:14       0.204     0.000
  HS02004799              0.01     71.40      0  02:13       0.001     0.000
  HS02004842              0.01     74.55      0  02:13       0.001     0.000
  HS02004852              0.01    102.41      0  02:13       0.000     0.000
  HS02004856              0.01     41.05      0  02:13       0.000     0.000
  HS02004862              0.01     82.17      0  02:13       0.000     0.000
  HS02004901              0.22    426.78      0  02:16       0.239     0.000
  WS02006109              0.20    166.60      0  02:14       0.067     0.000
  WS02006228              0.01      1.66      0  02:13       0.000     0.000
  WS02006230              0.43    524.96      0  02:14       0.475     0.000
  WS02006232              0.10      0.58      0  02:25       0.000     0.000
  WS02006234              0.46     54.70      0  02:27       0.084     0.000
  WS02006242              0.54    122.99      0  02:21       0.216     0.000
  WS02006248              0.73    338.83      0  02:24       0.752     0.000
  WS02006249              1.22   1266.23      0  02:13       2.555     0.000
  WS02006252              0.22    301.87      0  02:13       0.076     0.000
  WS02006256              0.28    293.19      0  00:00       0.088     0.000
  YS02001580              0.01     93.01      0  02:10       0.000     0.000
  YS02001586              0.17    101.23      0  02:10       0.024     0.000
  YS02001590              0.01     43.36      0  02:08       0.000     0.000
  YS02001600              0.01      2.56      0  02:08       0.000     0.000
  YS02001601              0.32    585.67      0  02:14       0.404     0.000
  YS02001602              0.21     61.94      0  02:16       0.038     0.000
  YS02001610              0.16    169.08      0  02:16       0.066     0.000
  YS02001625              0.12    275.21      0  02:16       0.062     0.000
  YS02001629              0.01    100.19      0  02:10       0.000     0.000
  YS02001779              0.01    184.40      0  02:13       0.000     0.000
  YS02001890              0.01     25.33      0  02:14       0.000     0.000
  YS02001907              0.10    644.84      0  02:15       0.082     0.000
  YS02001918              0.01     83.19      0  02:14       0.000     0.000
  YS02001929              0.01    217.39      0  02:14       0.000     0.000
  YSB1171                 0.05    106.93      0  02:13       0.010     0.000
  
  
  **********************
  Storage Volume Summary
  **********************
  
  --------------------------------------------------------------------------------------------------
                         Average     Avg  Evap Exfil       Maximum     Max    Time of Max    Maximum
                          Volume    Pcnt  Pcnt  Pcnt        Volume    Pcnt     Occurrence    Outflow
  Storage Unit           1000 m3    Full  Loss  Loss       1000 m3    Full    days hr:min        LPS
  --------------------------------------------------------------------------------------------------
  CC-storage               1.951      30     0     0         3.902      61       0  02:37    1783.53
  JK-storage               0.073      25     0     0         0.181      62       0  02:25    2300.00
  XR-storage               0.942      65     0     0         1.111      77       0  08:00     380.00
  
  
  ***********************
  Outfall Loading Summary
  ***********************
  
  -----------------------------------------------------------
                         Flow       Avg       Max       Total
                         Freq      Flow      Flow      Volume
  Outfall Node           Pcnt       LPS       LPS    10^6 ltr
  -----------------------------------------------------------
  CC-1                  47.49    683.00    683.00       4.750
  CC-2                  15.61    683.00    683.00       1.351
  JK-1                   0.18   1000.00   1000.00       0.048
  JK-2                  13.87   1000.00   1000.00       2.434
  WSC                   99.95    590.72   1464.29      12.471
  -----------------------------------------------------------
  System                35.42   3956.72   1464.29      21.054
  
  
  ********************
  Link Flow Summary
  ********************
  
  -----------------------------------------------------------------------------
                                 Maximum  Time of Max   Maximum    Max/    Max/
                                  |Flow|   Occurrence   |Veloc|    Full    Full
  Link                 Type          LPS  days hr:min     m/sec    Flow   Depth
  -----------------------------------------------------------------------------
  1                    CONDUIT   1464.29     0  02:19      3.67    0.51    0.51
  HS02004478WS02006287 CONDUIT   2206.57     0  02:15      2.61    0.62    1.00
  HS02004479HS02004480 CONDUIT    433.03     0  02:13      0.62    0.42    1.00
  HS02004480HS02004478 CONDUIT   2123.34     0  02:11      3.03    8.94    1.00
  HS02004770HS02004777 CONDUIT    757.78     0  02:09      1.08    1.39    1.00
  HS02004777HS02004785 CONDUIT    773.22     0  02:09      1.15    0.95    1.00
  HS02004785HS02004788 CONDUIT    623.47     0  02:23      1.36    4.70    1.00
  HS02004788HS02004792 CONDUIT    806.03     0  02:23      1.42    0.53    1.00
  HS02004792HS02004799 CONDUIT   1628.29     0  02:11      2.33    1.00    1.00
  HS02004799HS02004480 CONDUIT   1773.20     0  02:11      2.53    2.24    1.00
  HS02004802HS02004478 CONDUIT    494.00     0  02:14      0.71    0.44    1.00
  HS02004807HS02004802 CONDUIT    494.02     0  02:14      0.71    0.94    1.00
  HS02004817HS02004807 CONDUIT    410.40     0  02:10      0.59    0.24    1.00
  HS02004817HS02004824 CONDUIT    409.61     0  02:10      0.59    0.18    1.00
  HS02004824HS02004830 CONDUIT    663.41     0  02:10      0.97    0.87    1.00
  HS02004830HS02004837 CONDUIT    665.58     0  02:10      1.03    0.66    1.00
  HS02004837HS02004842 CONDUIT    844.96     0  02:11      1.21    0.50    1.00
  HS02004842HS02004848 CONDUIT    844.01     0  02:11      1.34    0.49    1.00
  HS02004848HS02004852 CONDUIT   1065.68     0  02:12      1.64    1.20    1.00
  HS02004852HS02004856 CONDUIT   1077.60     0  02:12      1.54    1.23    1.00
  HS02004856HS02004862 CONDUIT   1128.09     0  02:13      1.71    1.12    1.00
  HS02004862HS02004870 CONDUIT   1227.93     0  02:12      1.98    1.33    1.00
  HS02004870HS02004876 CONDUIT   1257.42     0  02:12      1.98    0.83    1.00
  HS02004876HS02004881 CONDUIT   1324.92     0  02:13      2.53   14.09    1.00
  HS02004881HS02006253 CONDUIT   1399.39     0  02:13      2.76    0.27    1.00
  HS02004901HS02004770 CONDUIT    262.18     0  02:19      0.37    0.99    1.00
  WS02001211WS02001212 CONDUIT    211.26     0  02:42      0.54    0.16    0.68
  WS02001212WS02001213 CONDUIT    216.37     0  02:42      1.04    0.33    0.55
  WS02001213WS02003059 CONDUIT    221.65     0  02:41      0.47    0.37    0.88
  WS02003059WS02003060 CONDUIT    227.83     0  02:41      0.66    0.15    0.80
  WS02003060WS02003069 CONDUIT   1462.25     0  02:17      2.07    0.57    0.60
  WS02003066WSF200     CONDUIT   1259.01     0  02:14      3.25    0.21    0.38
  WS02003067WS02003066 CONDUIT   1259.24     0  02:14      1.96    0.40    0.55
  WS02003069WS02003072 CONDUIT   1462.57     0  02:18      1.88    0.70    0.65
  WS02003072WS02003073 CONDUIT   1462.57     0  02:18      2.03    3.16    0.61
  WS02004138WS02004139 CONDUIT    190.77     0  00:29      2.16    0.04    0.41
  WS02004139WS02001211 CONDUIT    197.04     0  02:43      0.54    0.25    0.60
  WS02004401WS02004402 CONDUIT   1259.39     0  02:13      1.60    1.51    1.00
  WS02004402WS02004403 CONDUIT   1259.16     0  02:14      1.60    1.81    1.00
  WS02004403WS02004404 CONDUIT   1259.39     0  02:13      1.60    0.91    1.00
  WS02004404WS02004405 CONDUIT   1260.59     0  02:13      1.61   12.35    1.00
  WS02004405WS02004406 CONDUIT   1259.36     0  02:12      1.60    2.48    1.00
  WS02004406WS02004407 CONDUIT   1259.31     0  02:14      1.77    0.56    0.93
  WS02004407WS02004409 CONDUIT   1259.61     0  02:14      1.78    0.45    0.93
  WS02004409WS02004410 CONDUIT   1259.53     0  02:14      1.60    1.63    1.00
  WS02004410WS02004411 CONDUIT   1260.62     0  02:14      1.61    1.72    1.00
  WS02004411WS02004412 CONDUIT   1259.50     0  02:14      1.60    1.79    1.00
  WS02004412WS02004413 CONDUIT   1259.63     0  02:14      1.60    0.84    1.00
  WS02004413WS02003067 CONDUIT   1259.32     0  02:14      1.96    0.54    0.76
  WS02006109WS02006110 CONDUIT   1117.64     0  02:22      2.22    2.15    1.00
  WS02006110WS02006113 CONDUIT   1117.87     0  02:22      2.22    1.02    1.00
  WS02006111WS02006112 CONDUIT   1117.80     0  02:22      2.22    0.53    1.00
  WS02006112WS02006115 CONDUIT   1259.09     0  02:13      1.60    0.74    1.00
  WS02006113WS02006111 CONDUIT   1117.71     0  02:22      2.61    1.34    1.00
  WS02006115WS02006116 CONDUIT   1259.35     0  02:13      1.60    1.62    1.00
  WS02006116WS02004401 CONDUIT   1259.01     0  02:13      1.60    1.74    1.00
  WS02006228WS02006109 CONDUIT   1239.31     0  02:14      2.47    5.41    1.00
  WS02006229WS02006228 CONDUIT   1239.68     0  02:14      2.47    4.11    1.00
  WS02006230WS02006229 CONDUIT    967.46     0  02:14      2.51   21.53    1.00
  WS02006231WS02006230 CONDUIT    477.00     0  03:10      1.24    7.24    1.00
  WS02006232WS02006231 CONDUIT    473.47     0  03:10      1.23    0.99    1.00
  WS02006234WS02006232 CONDUIT    467.52     0  03:10      1.41    0.95    1.00
  WS02006235WS02006234 CONDUIT    455.19     0  03:10      1.21    4.80    1.00
  WS02006238WS02006235 CONDUIT    401.38     0  02:17      1.47    0.90    1.00
  WS02006239WS02006238 CONDUIT    406.12     0  03:10      1.11    1.30    1.00
  WS02006240WS02006239 CONDUIT    406.61     0  03:10      1.26    1.28    1.00
  WS02006242WS02006240 CONDUIT    405.14     0  03:10      1.14    1.61    1.00
  WS02006243WS02006242 CONDUIT    405.84     0  03:10      1.34    0.87    1.00
  WS02006245WS02006243 CONDUIT    405.79     0  03:10      1.39    1.20    1.00
  WS02006247WS02006245 CONDUIT    404.68     0  03:10      1.37    3.21    1.00
  WS02006248WS02006247 CONDUIT    405.16     0  03:10      1.38    0.88    1.00
  WS02006249WS02006248 CONDUIT    407.04     0  03:10      1.38    2.23    1.00
  WS02006251WS02006249 CONDUIT   1326.57     0  02:13      3.45    3.83    1.00
  WS02006252WS02006251 CONDUIT    405.72     0  02:34     24.78    1.49    1.00
  WS02006253WS02006251 CONDUIT   1426.52     0  02:13      3.71    4.28    1.00
  WS02006256WS02006235 CONDUIT    288.93     0  00:00      4.23    3.06    1.00
  WS02006280WS02006229 CONDUIT   2208.38     0  02:14      4.52    0.47    1.00
  WS02006284WS02006280 CONDUIT   2206.38     0  02:14      3.02    0.92    1.00
  WS02006287WS02006284 CONDUIT   2206.07     0  02:14      2.81    1.02    1.00
  WSF200WS02003060     CONDUIT   1259.70     0  02:14      2.31    0.28    0.49
  YS02001580YS02001583 CONDUIT    110.77     0  02:10      0.67    0.43    1.00
  YS02001583YS02001586 CONDUIT    169.47     0  02:10      0.71    0.26    1.00
  YS02001586YS02001590 CONDUIT    317.82     0  02:20      1.27    0.56    1.00
  YS02001590YS02001593 CONDUIT    317.89     0  02:20      1.12    2.00    1.00
  YS02001593YS02001596 CONDUIT    317.85     0  02:19      1.73    0.50    1.00
  YS02001596YS02001600 CONDUIT    317.95     0  02:20      1.21    0.62    1.00
  YS02001600YS02001601 CONDUIT    317.82     0  02:19      1.12    0.55    1.00
  YS02001601YS02001602 CONDUIT    518.76     0  02:09      1.83    1.87    1.00
  YS02001602YS02001605 CONDUIT    518.59     0  02:09      1.83   10.97    1.00
  YS02001605YS02001607 CONDUIT    518.36     0  02:09      1.83    2.84    1.00
  YS02001607YS02001610 CONDUIT    520.75     0  02:09      0.66    0.50    1.00
  YS02001610YS02001613 CONDUIT    522.87     0  02:09      0.67    0.60    1.00
  YS02001613YS02001616 CONDUIT    518.84     0  02:09      0.67    0.44    1.00
  YS02001616YS02001619 CONDUIT    501.21     0  02:09      0.68    0.87    1.00
  YS02001619YS02001622 CONDUIT    936.08     0  02:12      1.19    1.38    1.00
  YS02001622YS02001625 CONDUIT    936.08     0  02:12      1.19    0.50    1.00
  YS02001625YS02001629 CONDUIT    936.12     0  02:12      1.19    0.45    1.00
  YS02001629YS02163301 CONDUIT    936.33     0  02:11      1.19    1.15    1.00
  YS02001633YS02163601 CONDUIT   1405.74     0  02:12      1.79    1.48    1.00
  YS02001641YS02001644 CONDUIT   1406.49     0  02:12      1.79    4.55    1.00
  YS02001644YS02001647 CONDUIT   1822.33     0  02:12      2.33    1.07    1.00
  YS02001647YS02001649 CONDUIT   1836.03     0  02:12      2.38    0.97    1.00
  YS02001649YS02001757 CONDUIT   2104.84     0  02:12      2.68    1.28    1.00
  YS02001652YS02001649 CONDUIT    488.62     0  02:17      0.75    0.24    1.00
  YS02001655YS02001652 CONDUIT    488.80     0  02:17      1.30    0.24    1.00
  YS02001658YS02001655 CONDUIT    511.47     0  02:16      1.94    0.22    0.89
  YS02001661YS02001658 CONDUIT    538.47     0  02:16      2.34    0.21    0.55
  YS02001664YS02001661 CONDUIT    441.09     0  02:14      2.20    0.14    0.35
  YS02001745YS02001748 CONDUIT    271.96     0  02:13      2.15    0.10    0.39
  YS02001748YS02001751 CONDUIT    345.55     0  02:15      1.74    0.17    0.74
  YS02001751YS02001754 CONDUIT    374.01     0  02:15      1.42    0.18    0.93
  YS02001754YS02001757 CONDUIT    336.33     0  02:16      0.46    0.14    1.00
  YS02001757CaochengTiaoxuchi CONDUIT   3004.98     0  02:16      3.87    1.30    1.00
  YS02001759YS02001757 CONDUIT   1029.76     0  02:14      1.31    0.73    1.00
  YS02001762YS02001759 CONDUIT    634.84     0  02:14      0.81    0.73    1.00
  YS02001765YS02001762 CONDUIT    626.77     0  02:14      0.80    0.59    1.00
  YS02001767YS02001765 CONDUIT    616.51     0  02:14      0.78    0.78    1.00
  YS02001770YS02001767 CONDUIT    607.32     0  02:14      0.77    2.41    1.00
  YS02001774YS02001770 CONDUIT    263.06     0  02:13      0.33    0.17    1.00
  YS02001779YS02001774 CONDUIT    269.55     0  02:13      0.35    0.14    1.00
  YS02001783YS02001784 CONDUIT   1142.83     0  02:15      2.27    1.58    1.00
  YS02001784YS02001785 CONDUIT   1143.38     0  02:14      2.27    2.66    1.00
  YS02001786YS02001788 CONDUIT   1143.83     0  02:14      2.44    2.20    0.88
  YS02001788YS02001790 CONDUIT   1154.10     0  02:16      2.67    0.85    0.83
  YS02001790YS02001791 CONDUIT   1270.41     0  02:15      3.41    1.38    0.70
  YS02001791YS02001793 CONDUIT   1226.12     0  02:15      6.77    0.53    0.40
  YS02001793JiankangQianchi CONDUIT   1225.86     0  02:15      2.46    0.10    0.61
  YS02001882YS02001884 CONDUIT     52.94     0  02:11      0.10    0.06    1.00
  YS02001884YS02001887 CONDUIT     67.96     0  02:11      0.09    0.09    1.00
  YS02001887YS02001890 CONDUIT    430.80     0  02:12      0.55    0.74    1.00
  YS02001890YS02001895 CONDUIT    436.97     0  02:12      0.56    0.20    1.00
  YS02001895YS02001898 CONDUIT    445.62     0  02:12      0.57    0.77    1.00
  YS02001898YS02001901 CONDUIT    460.61     0  02:12      0.59    0.30    1.00
  YS02001901YS02001904 CONDUIT    464.13     0  02:12      0.59    0.72    1.00
  YS02001904YS02001907 CONDUIT    469.11     0  02:12      0.60    0.16    1.00
  YS02001907YS02006553 CONDUIT    800.72     0  02:20      0.89    0.94    1.00
  YS02001910YS02001907 CONDUIT    898.05     0  02:15      1.14    0.51    1.00
  YS02001915YS02001910 CONDUIT    896.86     0  02:15      1.14    0.45    1.00
  YS02001918YS02001915 CONDUIT    459.71     0  02:15      0.59    0.25    1.00
  YS02001920YS02001918 CONDUIT    458.02     0  02:15      0.64    0.44    1.00
  YS02001923YS02001920 CONDUIT    454.35     0  02:15      0.71    0.20    1.00
  YS02001926YS02001923 CONDUIT    407.94     0  02:14      0.99    0.58    1.00
  YS02001929YS02001926 CONDUIT    404.78     0  02:14      1.15    0.19    1.00
  YS02006553YS02006556 CONDUIT    801.40     0  02:20      1.02    0.69    1.00
  YS02006556YS02006558 CONDUIT    802.96     0  02:20      1.02    0.63    1.00
  YS02006558YS02006561 CONDUIT   1142.63     0  02:14      4.04    2.53    1.00
  YS02006561YS02001783 CONDUIT   1142.88     0  02:14      2.29    0.59    1.00
  YS02163301YS02001633 CONDUIT    937.12     0  02:12      1.19    0.88    1.00
  YS02163601YS02164001 CONDUIT   1406.11     0  02:12      1.79    1.25    1.00
  YS02164001YS02001641 CONDUIT   1406.32     0  02:12      1.79    1.92    1.00
  YSB1154YSB6556       CONDUIT    233.73     0  02:13      0.61    0.42    1.00
  YSB1171HS02004479    CONDUIT    431.12     0  02:13      0.86    0.29    1.00
  YSB1174YSB1171       CONDUIT    200.13     0  02:13      0.52    0.31    1.00
  YSB6556YSB1171       CONDUIT    233.65     0  02:14      0.61    0.24    1.00
  CC-R1                PUMP       683.00     0  00:00              1.00
  CC-R2                PUMP       683.00     0  00:00              1.00
  CC-S1                PUMP       200.00     0  00:00              1.00
  CC-S2                PUMP       200.00     0  00:00              1.00
  JK-R1                PUMP      1000.00     0  00:00              1.00
  JK-R2                PUMP      1000.00     0  00:00              1.00
  JK-S                 PUMP       300.00     0  00:00              1.00
  XR-1                 PUMP        95.00     0  00:00              1.00
  XR-2                 PUMP        95.00     0  00:00              1.00
  XR-3                 PUMP        95.00     0  00:00              1.00
  XR-4                 PUMP        95.00     0  00:00              1.00
  
  
  ***************************
  Flow Classification Summary
  ***************************
  
  -------------------------------------------------------------------------------------
                      Adjusted    ---------- Fraction of Time in Flow Class ---------- 
                       /Actual         Up    Down  Sub   Sup   Up    Down  Norm  Inlet 
  Conduit               Length    Dry  Dry   Dry   Crit  Crit  Crit  Crit  Ltd   Ctrl  
  -------------------------------------------------------------------------------------
  1                       1.00   0.00  0.00  0.00  0.00  1.00  0.00  0.00  0.29  0.00
  HS02004478WS02006287    1.00   0.11  0.00  0.00  0.58  0.30  0.00  0.00  0.62  0.00
  HS02004479HS02004480    1.00   0.05  0.00  0.00  0.95  0.00  0.00  0.00  0.12  0.00
  HS02004480HS02004478    1.00   0.10  0.00  0.00  0.45  0.00  0.00  0.45  0.00  0.00
  HS02004770HS02004777    1.00   0.00  0.10  0.00  0.90  0.00  0.00  0.00  0.03  0.00
  HS02004777HS02004785    1.00   0.00  0.00  0.00  1.00  0.00  0.00  0.00  0.13  0.00
  HS02004785HS02004788    1.00   0.00  0.00  0.00  1.00  0.00  0.00  0.00  0.00  0.00
  HS02004788HS02004792    1.00   0.00  0.00  0.00  0.99  0.01  0.00  0.00  0.93  0.00
  HS02004792HS02004799    1.00   0.00  0.00  0.00  0.98  0.02  0.00  0.00  0.90  0.00
  HS02004799HS02004480    1.00   0.00  0.05  0.00  0.89  0.00  0.06  0.00  0.00  0.00
  HS02004802HS02004478    1.00   0.10  0.00  0.00  0.90  0.00  0.00  0.00  0.03  0.00
  HS02004807HS02004802    1.00   0.10  0.00  0.00  0.90  0.00  0.00  0.01  0.00  0.00
  HS02004817HS02004807    1.00   0.00  0.10  0.00  0.90  0.00  0.00  0.00  0.01  0.00
  HS02004817HS02004824    1.00   0.00  0.00  0.00  1.00  0.00  0.00  0.00  0.86  0.00
  HS02004824HS02004830    1.00   0.00  0.00  0.00  1.00  0.00  0.00  0.00  0.01  0.00
  HS02004830HS02004837    1.00   0.00  0.00  0.00  1.00  0.00  0.00  0.00  0.92  0.00
  HS02004837HS02004842    1.00   0.00  0.00  0.00  1.00  0.00  0.00  0.00  0.11  0.00
  HS02004842HS02004848    1.00   0.00  0.10  0.00  0.90  0.00  0.00  0.00  0.59  0.00
  HS02004848HS02004852    1.00   0.10  0.00  0.00  0.90  0.00  0.00  0.00  0.71  0.00
  HS02004852HS02004856    1.00   0.10  0.01  0.00  0.90  0.00  0.00  0.00  0.72  0.00
  HS02004856HS02004862    1.00   0.00  0.12  0.00  0.88  0.00  0.00  0.00  0.76  0.00
  HS02004862HS02004870    1.00   0.00  0.00  0.00  1.00  0.00  0.00  0.00  0.04  0.00
  HS02004870HS02004876    1.00   0.00  0.00  0.00  0.99  0.01  0.00  0.00  0.89  0.00
  HS02004876HS02004881    1.00   0.04  0.00  0.00  0.75  0.22  0.00  0.00  0.00  0.00
  HS02004881HS02006253    1.00   0.03  0.04  0.00  0.40  0.02  0.00  0.52  0.16  0.00
  HS02004901HS02004770    1.00   0.10  0.00  0.00  0.90  0.00  0.00  0.00  0.00  0.00
  WS02001211WS02001212    1.00   0.00  0.04  0.00  0.96  0.00  0.00  0.00  0.00  0.00
  WS02001212WS02001213    1.00   0.04  0.00  0.00  0.47  0.00  0.48  0.00  0.00  0.00
  WS02001213WS02003059    1.00   0.00  0.00  0.00  0.99  0.00  0.00  0.00  0.00  0.00
  WS02003059WS02003060    1.00   0.00  0.00  0.00  1.00  0.00  0.00  0.00  0.03  0.00
  WS02003060WS02003069    1.00   0.00  0.00  0.00  0.99  0.01  0.00  0.00  0.54  0.00
  WS02003066WSF200        1.00   0.07  0.00  0.00  0.00  0.93  0.00  0.00  0.71  0.00
  WS02003067WS02003066    1.00   0.07  0.00  0.00  0.93  0.00  0.00  0.00  0.00  0.00
  WS02003069WS02003072    1.00   0.00  0.00  0.00  1.00  0.00  0.00  0.00  0.71  0.00
  WS02003072WS02003073    1.00   0.00  0.00  0.00  0.00  0.00  0.00  1.00  0.00  0.00
  WS02004138WS02004139    1.00   0.00  0.01  0.00  0.96  0.01  0.00  0.02  0.98  0.00
  WS02004139WS02001211    1.00   0.00  0.00  0.00  0.99  0.00  0.00  0.00  0.00  0.00
  WS02004401WS02004402    1.00   0.04  0.00  0.00  0.96  0.00  0.00  0.00  0.00  0.00
  WS02004402WS02004403    1.00   0.04  0.00  0.00  0.96  0.00  0.00  0.00  0.00  0.00
  WS02004403WS02004404    1.00   0.00  0.05  0.00  0.95  0.00  0.00  0.00  0.00  0.00
  WS02004404WS02004405    1.00   0.00  0.00  0.00  1.00  0.00  0.00  0.00  0.01  0.00
  WS02004405WS02004406    1.00   0.00  0.00  0.00  1.00  0.00  0.00  0.00  0.00  0.00
  WS02004406WS02004407    1.00   0.00  0.05  0.00  0.94  0.00  0.00  0.00  0.00  0.00
  WS02004407WS02004409    1.00   0.06  0.00  0.00  0.94  0.00  0.00  0.00  0.88  0.00
  WS02004409WS02004410    1.00   0.06  0.00  0.00  0.94  0.00  0.00  0.00  0.00  0.00
  WS02004410WS02004411    1.00   0.06  0.00  0.00  0.94  0.00  0.00  0.00  0.00  0.00
  WS02004411WS02004412    1.00   0.06  0.00  0.00  0.94  0.00  0.00  0.00  0.00  0.00
  WS02004412WS02004413    1.00   0.06  0.00  0.00  0.94  0.00  0.00  0.00  0.01  0.00
  WS02004413WS02003067    1.00   0.06  0.01  0.00  0.00  0.00  0.93  0.00  0.00  0.00
  WS02006109WS02006110    1.00   0.00  0.01  0.00  0.97  0.00  0.03  0.00  0.00  0.00
  WS02006110WS02006113    1.00   0.01  0.03  0.00  0.96  0.00  0.00  0.00  0.00  0.00
  WS02006111WS02006112    1.00   0.04  0.00  0.00  0.96  0.00  0.00  0.00  0.81  0.00
  WS02006112WS02006115    1.00   0.04  0.00  0.00  0.95  0.00  0.00  0.00  0.00  0.00
  WS02006113WS02006111    1.00   0.04  0.00  0.00  0.24  0.73  0.00  0.00  0.06  0.00
  WS02006115WS02006116    1.00   0.04  0.00  0.00  0.95  0.00  0.00  0.01  0.00  0.00
  WS02006116WS02004401    1.00   0.04  0.00  0.00  0.96  0.00  0.00  0.00  0.00  0.00
  WS02006228WS02006109    1.00   0.00  0.00  0.00  1.00  0.00  0.00  0.00  0.00  0.00
  WS02006229WS02006228    1.00   0.00  0.00  0.00  0.99  0.00  0.00  0.01  0.00  0.00
  WS02006230WS02006229    1.00   0.00  0.00  0.00  0.97  0.00  0.00  0.03  0.02  0.00
  WS02006231WS02006230    1.00   0.00  0.00  0.00  0.50  0.00  0.50  0.00  0.00  0.00
  WS02006232WS02006231    1.00   0.00  0.00  0.00  0.99  0.00  0.01  0.00  0.00  0.00
  WS02006234WS02006232    1.00   0.00  0.00  0.00  1.00  0.00  0.00  0.00  0.08  0.00
  WS02006235WS02006234    1.00   0.00  0.00  0.00  0.93  0.00  0.07  0.00  0.00  0.00
  WS02006238WS02006235    1.00   0.00  0.00  0.00  1.00  0.00  0.00  0.00  0.01  0.00
  WS02006239WS02006238    1.00   0.00  0.00  0.00  1.00  0.00  0.00  0.00  0.14  0.00
  WS02006240WS02006239    1.00   0.00  0.00  0.00  0.77  0.00  0.00  0.23  0.06  0.00
  WS02006242WS02006240    1.00   0.00  0.00  0.00  1.00  0.00  0.00  0.00  0.00  0.00
  WS02006243WS02006242    1.00   0.00  0.00  0.00  0.99  0.00  0.00  0.00  0.72  0.00
  WS02006245WS02006243    1.00   0.00  0.00  0.00  0.81  0.00  0.00  0.19  0.00  0.00
  WS02006247WS02006245    1.00   0.00  0.00  0.00  0.99  0.00  0.00  0.00  0.00  0.00
  WS02006248WS02006247    1.00   0.00  0.00  0.00  1.00  0.00  0.00  0.00  0.63  0.00
  WS02006249WS02006248    1.00   0.00  0.00  0.00  0.56  0.00  0.44  0.00  0.00  0.00
  WS02006251WS02006249    1.00   0.00  0.00  0.00  1.00  0.00  0.00  0.00  0.66  0.00
  WS02006252WS02006251    1.00   0.00  0.53  0.00  0.25  0.00  0.22  0.00  0.00  0.00
  WS02006253WS02006251    1.00   0.00  0.00  0.00  0.98  0.00  0.02  0.00  0.01  0.00
  WS02006256WS02006235    1.00   0.00  0.00  0.00  0.98  0.02  0.00  0.00  0.01  0.00
  WS02006280WS02006229    1.00   0.10  0.00  0.00  0.16  0.06  0.00  0.68  0.02  0.00
  WS02006284WS02006280    1.00   0.10  0.00  0.00  0.11  0.01  0.00  0.77  0.00  0.00
  WS02006287WS02006284    1.00   0.09  0.03  0.00  0.42  0.46  0.00  0.00  0.67  0.00
  WSF200WS02003060        1.00   0.00  0.07  0.00  0.47  0.45  0.00  0.00  0.67  0.00
  YS02001580YS02001583    1.00   0.25  0.49  0.00  0.25  0.00  0.00  0.00  0.68  0.00
  YS02001583YS02001586    1.00   0.32  0.28  0.00  0.39  0.00  0.00  0.00  0.68  0.00
  YS02001586YS02001590    1.00   0.10  0.00  0.00  0.59  0.03  0.00  0.28  0.35  0.00
  YS02001590YS02001593    1.00   0.10  0.00  0.00  0.12  0.00  0.79  0.00  0.00  0.00
  YS02001593YS02001596    1.00   0.10  0.00  0.00  0.14  0.01  0.00  0.75  0.02  0.00
  YS02001596YS02001600    1.00   0.10  0.00  0.00  0.25  0.02  0.00  0.63  0.06  0.00
  YS02001600YS02001601    1.00   0.10  0.00  0.00  0.90  0.00  0.00  0.00  0.65  0.00
  YS02001601YS02001602    1.00   0.10  0.00  0.00  0.90  0.00  0.00  0.00  0.00  0.00
  YS02001602YS02001605    1.00   0.10  0.00  0.00  0.90  0.00  0.00  0.00  0.00  0.00
  YS02001605YS02001607    1.00   0.10  0.00  0.00  0.90  0.00  0.00  0.00  0.00  0.00
  YS02001607YS02001610    1.00   0.10  0.00  0.00  0.90  0.00  0.00  0.00  0.02  0.00
  YS02001610YS02001613    1.00   0.10  0.00  0.00  0.90  0.00  0.00  0.00  0.01  0.00
  YS02001613YS02001616    1.00   0.10  0.00  0.00  0.90  0.00  0.00  0.00  0.01  0.00
  YS02001616YS02001619    1.00   0.10  0.00  0.00  0.90  0.00  0.00  0.00  0.00  0.00
  YS02001619YS02001622    1.00   0.10  0.00  0.00  0.90  0.00  0.00  0.00  0.35  0.00
  YS02001622YS02001625    1.00   0.10  0.00  0.00  0.90  0.00  0.00  0.00  0.06  0.00
  YS02001625YS02001629    1.00   0.10  0.03  0.00  0.17  0.00  0.70  0.00  0.00  0.00
  YS02001629YS02163301    1.00   0.11  0.00  0.00  0.88  0.00  0.00  0.00  0.00  0.00
  YS02001633YS02163601    1.00   0.00  0.01  0.00  0.99  0.00  0.00  0.00  0.15  0.00
  YS02001641YS02001644    1.00   0.00  0.00  0.00  1.00  0.00  0.00  0.00  0.00  0.00
  YS02001644YS02001647    1.00   0.00  0.12  0.00  0.88  0.00  0.00  0.00  0.00  0.00
  YS02001647YS02001649    1.00   0.00  0.12  0.00  0.49  0.38  0.00  0.00  0.60  0.00
  YS02001649YS02001757    1.00   0.00  0.00  0.00  0.60  0.40  0.00  0.00  0.54  0.00
  YS02001652YS02001649    1.00   0.00  0.00  0.00  0.97  0.03  0.00  0.00  0.80  0.00
  YS02001655YS02001652    1.00   0.00  0.00  0.00  0.21  0.02  0.00  0.76  0.07  0.00
  YS02001658YS02001655    1.00   0.00  0.10  0.00  0.48  0.42  0.00  0.00  0.76  0.00
  YS02001661YS02001658    1.00   0.10  0.00  0.00  0.32  0.57  0.00  0.00  0.76  0.00
  YS02001664YS02001661    1.00   0.10  0.00  0.00  0.72  0.19  0.00  0.00  0.87  0.00
  YS02001745YS02001748    1.00   0.00  0.00  0.00  0.03  0.02  0.00  0.95  0.03  0.00
  YS02001748YS02001751    1.00   0.00  0.00  0.00  0.70  0.30  0.00  0.00  0.81  0.00
  YS02001751YS02001754    1.00   0.00  0.00  0.00  0.18  0.01  0.00  0.81  0.05  0.00
  YS02001754YS02001757    1.00   0.00  0.00  0.00  1.00  0.00  0.00  0.00  0.87  0.00
  YS02001757CaochengTiaoxuchi    1.00   0.00  0.00  0.00  0.93  0.07  0.00  0.00  0.84  0.00
  YS02001759YS02001757    1.00   0.00  0.00  0.00  1.00  0.00  0.00  0.00  0.65  0.00
  YS02001762YS02001759    1.00   0.00  0.00  0.00  1.00  0.00  0.00  0.00  0.05  0.00
  YS02001765YS02001762    1.00   0.00  0.00  0.00  1.00  0.00  0.00  0.00  0.77  0.00
  YS02001767YS02001765    1.00   0.00  0.00  0.00  1.00  0.00  0.00  0.00  0.00  0.00
  YS02001770YS02001767    1.00   0.00  0.00  0.00  1.00  0.00  0.00  0.00  0.00  0.00
  YS02001774YS02001770    1.00   0.00  0.10  0.00  0.74  0.00  0.16  0.00  0.04  0.00
  YS02001779YS02001774    1.00   0.00  0.00  0.00  1.00  0.00  0.00  0.00  0.81  0.00
  YS02001783YS02001784    1.00   0.00  0.13  0.00  0.87  0.00  0.00  0.00  0.58  0.00
  YS02001784YS02001785    1.00   0.00  0.00  0.00  1.00  0.00  0.00  0.00  0.18  0.00
  YS02001786YS02001788    1.00   0.00  0.00  0.00  0.61  0.39  0.00  0.00  0.00  0.00
  YS02001788YS02001790    1.00   0.00  0.00  0.00  0.16  0.84  0.00  0.00  0.85  0.00
  YS02001790YS02001791    1.00   0.00  0.00  0.00  0.02  0.98  0.00  0.00  0.15  0.00
  YS02001791YS02001793    1.00   0.00  0.00  0.00  0.00  1.00  0.00  0.00  0.00  0.00
  YS02001793JiankangQianchi    1.00   0.00  0.00  0.00  0.98  0.02  0.00  0.00  0.99  0.00
  YS02001882YS02001884    1.00   0.11  0.01  0.00  0.89  0.00  0.00  0.00  0.00  0.00
  YS02001884YS02001887    1.00   0.07  0.02  0.00  0.91  0.00  0.00  0.00  0.00  0.00
  YS02001887YS02001890    1.00   0.00  0.00  0.00  0.95  0.00  0.05  0.00  0.00  0.00
  YS02001890YS02001895    1.00   0.00  0.11  0.00  0.88  0.00  0.00  0.00  0.00  0.00
  YS02001895YS02001898    1.00   0.12  0.00  0.00  0.86  0.00  0.02  0.00  0.00  0.00
  YS02001898YS02001901    1.00   0.12  0.00  0.00  0.88  0.00  0.00  0.00  0.01  0.00
  YS02001901YS02001904    1.00   0.12  0.00  0.00  0.88  0.00  0.00  0.00  0.00  0.00
  YS02001904YS02001907    1.00   0.00  0.11  0.00  0.88  0.00  0.00  0.00  0.00  0.00
  YS02001907YS02006553    1.00   0.00  0.04  0.00  0.96  0.00  0.00  0.00  0.00  0.00
  YS02001910YS02001907    1.00   0.00  0.00  0.00  0.95  0.00  0.00  0.04  0.12  0.00
  YS02001915YS02001910    1.00   0.00  0.00  0.00  0.96  0.04  0.00  0.00  0.17  0.00
  YS02001918YS02001915    1.00   0.00  0.00  0.00  0.96  0.04  0.00  0.00  0.80  0.00
  YS02001920YS02001918    1.00   0.00  0.00  0.00  1.00  0.00  0.00  0.00  0.00  0.00
  YS02001923YS02001920    1.00   0.00  0.00  0.00  1.00  0.00  0.00  0.00  0.96  0.00
  YS02001926YS02001923    1.00   0.00  0.07  0.00  0.04  0.00  0.89  0.00  0.00  0.00
  YS02001929YS02001926    1.00   0.00  0.10  0.00  0.90  0.00  0.00  0.00  0.85  0.00
  YS02006553YS02006556    1.00   0.02  0.00  0.00  0.98  0.00  0.00  0.00  0.03  0.00
  YS02006556YS02006558    1.00   0.00  0.00  0.00  1.00  0.00  0.00  0.00  0.00  0.00
  YS02006558YS02006561    1.00   0.13  0.00  0.00  0.03  0.83  0.00  0.00  0.18  0.00
  YS02006561YS02001783    1.00   0.13  0.00  0.00  0.08  0.79  0.00  0.00  0.72  0.00
  YS02163301YS02001633    1.00   0.00  0.11  0.00  0.89  0.00  0.00  0.00  0.00  0.00
  YS02163601YS02164001    1.00   0.00  0.08  0.00  0.92  0.00  0.00  0.00  0.00  0.00
  YS02164001YS02001641    1.00   0.01  0.07  0.00  0.92  0.00  0.00  0.00  0.06  0.00
  YSB1154YSB6556          1.00   0.09  0.00  0.00  0.91  0.00  0.00  0.00  0.02  0.00
  YSB1171HS02004479       1.00   0.05  0.00  0.00  0.94  0.00  0.00  0.01  0.10  0.00
  YSB1174YSB1171          1.00   0.06  0.02  0.00  0.92  0.00  0.00  0.00  0.00  0.00
  YSB6556YSB1171          1.00   0.06  0.04  0.00  0.91  0.00  0.00  0.00  0.00  0.00
  
  
  *************************
  Conduit Surcharge Summary
  *************************
  
  ----------------------------------------------------------------------------
                                                           Hours        Hours 
                         --------- Hours Full --------   Above Full   Capacity
  Conduit                Both Ends  Upstream  Dnstream   Normal Flow   Limited
  ----------------------------------------------------------------------------
  HS02004478WS02006287        0.25      0.25      0.40      0.01         0.01
  HS02004479HS02004480        0.40      0.40      0.42      0.01         0.01
  HS02004480HS02004478        0.35      0.40      0.35      1.41         0.35
  HS02004770HS02004777        0.32      0.32      0.32      0.09         0.06
  HS02004777HS02004785        0.28      0.28      0.32      0.01         0.01
  HS02004785HS02004788        0.27      0.28      0.27      1.08         0.26
  HS02004788HS02004792        0.27      0.27      0.37      0.01         0.01
  HS02004792HS02004799        0.37      0.37      0.48      0.01         0.01
  HS02004799HS02004480        0.40      0.40      0.48      0.55         0.01
  HS02004802HS02004478        0.35      0.35      0.41      0.01         0.01
  HS02004807HS02004802        0.39      0.39      0.40      0.01         0.03
  HS02004817HS02004807        0.39      0.39      0.87      0.01         0.01
  HS02004817HS02004824        0.27      0.27      0.87      0.01         0.01
  HS02004824HS02004830        0.24      0.24      0.27      0.01         0.01
  HS02004830HS02004837        0.21      0.21      0.24      0.01         0.01
  HS02004837HS02004842        0.21      0.21      0.33      0.01         0.01
  HS02004842HS02004848        0.18      0.18      0.33      0.01         0.01
  HS02004848HS02004852        0.18      0.18      0.20      0.03         0.01
  HS02004852HS02004856        0.20      0.20      0.22      0.02         0.01
  HS02004856HS02004862        0.18      0.18      0.21      0.02         0.01
  HS02004862HS02004870        0.21      0.21      0.23      0.03         0.01
  HS02004870HS02004876        0.23      0.23      0.29      0.01         0.01
  HS02004876HS02004881        0.27      0.29      0.27      1.09         0.27
  HS02004881HS02006253        0.27      0.27      1.22      0.01         0.01
  HS02004901HS02004770        0.32      0.32      0.33      0.01         0.01
  WS02003072WS02003073        0.01      0.01      0.01      2.01         0.01
  WS02004401WS02004402        1.21      1.21      1.23      0.98         0.97
  WS02004402WS02004403        1.23      1.23      1.23      1.21         1.20
  WS02004403WS02004404        1.23      1.23      1.35      0.01         0.01
  WS02004404WS02004405        1.34      1.35      1.34      2.41         1.34
  WS02004405WS02004406        1.32      1.34      1.32      1.47         1.32
  WS02004406WS02004407        0.01      0.01      1.32      0.01         0.01
  WS02004407WS02004409        0.01      0.01      0.63      0.01         0.01
  WS02004409WS02004410        0.61      0.63      0.61      1.13         0.61
  WS02004410WS02004411        0.57      0.61      0.57      1.19         0.57
  WS02004411WS02004412        0.50      0.57      0.50      1.21         0.50
  WS02004412WS02004413        0.50      0.50      0.89      0.01         0.01
  WS02004413WS02003067        0.01      0.01      0.89      0.01         0.01
  WS02006109WS02006110        1.42      1.42      1.80      1.43         0.01
  WS02006110WS02006113        0.85      0.85      1.78      0.18         0.01
  WS02006111WS02006112        0.82      0.82      1.95      0.01         0.01
  WS02006112WS02006115        1.15      1.15      1.51      0.01         0.01
  WS02006113WS02006111        0.84      0.85      0.84      0.94         0.83
  WS02006115WS02006116        1.18      1.18      1.18      1.10         1.09
  WS02006116WS02004401        1.21      1.21      1.21      1.20         1.19
  WS02006228WS02006109        1.75      1.80      1.75      2.04         1.75
  WS02006229WS02006228        1.74      1.75      1.74      1.94         1.74
  WS02006230WS02006229        1.85      1.88      1.85      2.27         0.98
  WS02006231WS02006230        1.33      1.33      1.35      1.98         0.68
  WS02006232WS02006231        1.34      1.34      1.51      0.01         0.09
  WS02006234WS02006232        1.38      1.38      1.51      0.01         0.01
  WS02006235WS02006234        1.34      1.35      1.39      1.79         0.65
  WS02006238WS02006235        1.40      1.40      1.45      0.01         0.20
  WS02006239WS02006238        1.40      1.40      1.41      0.73         0.19
  WS02006240WS02006239        1.32      1.33      1.34      0.70         0.16
  WS02006242WS02006240        1.32      1.32      1.38      1.11         0.56
  WS02006243WS02006242        1.30      1.30      1.35      0.01         0.01
  WS02006245WS02006243        1.28      1.28      1.29      0.15         0.10
  WS02006247WS02006245        1.28      1.28      1.28      1.56         0.56
  WS02006248WS02006247        1.26      1.26      1.28      0.01         0.01
  WS02006249WS02006248        1.25      1.26      1.26      0.87         0.01
  WS02006251WS02006249        1.26      1.26      1.26      1.21         1.17
  WS02006252WS02006251        1.32      1.32      1.35      1.03         0.01
  WS02006253WS02006251        1.26      1.26      1.26      0.50         0.01
  WS02006256WS02006235        2.19      2.21      6.69      0.32         0.01
  WS02006280WS02006229        0.50      0.50      0.60      0.01         0.01
  WS02006284WS02006280        0.42      0.42      0.49      0.01         0.01
  WS02006287WS02006284        0.34      0.34      0.43      0.07         0.06
  YS02001580YS02001583        0.26      0.26      0.30      0.01         0.01
  YS02001583YS02001586        0.27      0.27      0.38      0.01         0.01
  YS02001586YS02001590        0.38      0.38      0.44      0.01         0.01
  YS02001590YS02001593        0.44      0.44      0.45      0.46         0.01
  YS02001593YS02001596        0.45      0.45      0.53      0.01         0.01
  YS02001596YS02001600        0.57      0.57      0.65      0.01         0.01
  YS02001600YS02001601        0.71      0.71      1.00      0.01         0.01
  YS02001601YS02001602        0.88      0.88      1.05      0.67         0.01
  YS02001602YS02001605        0.82      0.82      0.88      1.88         0.01
  YS02001605YS02001607        0.78      0.82      0.78      0.95         0.78
  YS02001607YS02001610        0.40      0.40      0.42      0.01         0.01
  YS02001610YS02001613        0.39      0.39      0.42      0.01         0.01
  YS02001613YS02001616        0.35      0.35      0.39      0.01         0.01
  YS02001616YS02001619        0.34      0.34      0.35      0.01         0.01
  YS02001619YS02001622        0.34      0.34      0.34      0.47         0.33
  YS02001622YS02001625        0.34      0.34      0.49      0.01         0.01
  YS02001625YS02001629        0.28      0.28      0.49      0.01         0.01
  YS02001629YS02163301        0.48      0.48      0.49      0.24         0.22
  YS02001633YS02163601        0.50      0.50      0.53      0.39         0.38
  YS02001641YS02001644        0.38      0.42      0.38      1.11         0.38
  YS02001644YS02001647        0.20      0.20      0.38      0.04         0.01
  YS02001647YS02001649        0.20      0.20      0.26      0.01         0.01
  YS02001649YS02001757        0.25      0.26      0.28      0.22         0.17
  YS02001652YS02001649        0.14      0.14      0.26      0.01         0.01
  YS02001655YS02001652        0.02      0.02      0.12      0.01         0.01
  YS02001658YS02001655        0.01      0.01      0.02      0.01         0.01
  YS02001751YS02001754        0.01      0.01      0.03      0.01         0.01
  YS02001754YS02001757        0.05      0.05      0.28      0.01         0.01
  YS02001757CaochengTiaoxuchi        0.20      0.28      0.91      0.20         0.09
  YS02001759YS02001757        0.21      0.21      0.28      0.01         0.01
  YS02001762YS02001759        0.19      0.19      0.21      0.01         0.01
  YS02001765YS02001762        0.15      0.15      0.19      0.01         0.01
  YS02001767YS02001765        0.14      0.14      0.15      0.01         0.01
  YS02001770YS02001767        0.14      0.14      0.14      0.30         0.10
  YS02001774YS02001770        0.12      0.12      0.18      0.01         0.01
  YS02001779YS02001774        0.04      0.04      0.18      0.01         0.01
  YS02001783YS02001784        0.24      0.26      0.24      0.38         0.24
  YS02001784YS02001785        0.15      0.24      0.15      0.56         0.15
  YS02001786YS02001788        0.01      0.15      0.01      0.47         0.01
  YS02001790YS02001791        0.01      0.01      0.01      0.23         0.01
  YS02001793JiankangQianchi        0.01      0.01      6.54      0.01         0.01
  YS02001882YS02001884        0.22      0.22      0.23      0.01         0.01
  YS02001884YS02001887        0.24      0.24      0.25      0.01         0.01
  YS02001887YS02001890        0.26      0.26      0.28      0.01         0.01
  YS02001890YS02001895        0.21      0.21      0.29      0.01         0.01
  YS02001895YS02001898        0.20      0.20      0.21      0.01         0.01
  YS02001898YS02001901        0.21      0.21      0.24      0.01         0.01
  YS02001901YS02001904        0.23      0.23      0.24      0.01         0.01
  YS02001904YS02001907        0.23      0.23      0.45      0.01         0.01
  YS02001907YS02006553        0.56      0.56      0.62      0.01         0.01
  YS02001910YS02001907        0.28      0.28      0.44      0.01         0.01
  YS02001915YS02001910        0.21      0.21      0.28      0.01         0.01
  YS02001918YS02001915        0.14      0.14      0.21      0.01         0.01
  YS02001920YS02001918        0.14      0.14      0.15      0.01         0.01
  YS02001923YS02001920        0.08      0.08      0.15      0.01         0.01
  YS02001926YS02001923        0.01      0.01      0.01      0.01         0.01
  YS02001929YS02001926        0.01      0.01      0.01      0.01         0.01
  YS02006553YS02006556        0.36      0.36      0.45      0.01         0.01
  YS02006556YS02006558        0.40      0.40      0.46      0.01         0.01
  YS02006558YS02006561        0.17      0.35      0.17      0.53         0.17
  YS02006561YS02001783        0.11      0.11      0.26      0.01         0.01
  YS02163301YS02001633        0.49      0.49      0.52      0.01         0.01
  YS02163601YS02164001        0.43      0.43      0.53      0.19         0.01
  YS02164001YS02001641        0.42      0.43      0.42      0.56         0.42
  YSB1154YSB6556              0.46      0.46      0.57      0.01         0.01
  YSB1171HS02004479           0.36      0.36      0.57      0.01         0.01
  YSB1174YSB1171              0.51      0.51      0.79      0.01         0.01
  YSB6556YSB1171              0.46      0.46      0.94      0.01         0.01
  
  
  ***************
  Pumping Summary
  ***************
  
  ---------------------------------------------------------------------------------------------------------
                                                  Min       Avg       Max     Total     Power    % Time Off
                        Percent   Number of      Flow      Flow      Flow    Volume     Usage    Pump Curve
  Pump                 Utilized   Start-Ups       LPS       LPS       LPS  10^6 ltr     Kw-hr    Low   High
  ---------------------------------------------------------------------------------------------------------
  CC-R1                   24.22          37      0.00    683.00    683.00     4.764     83.78    0.0   52.8
  CC-R2                    6.94          32      0.00    683.00    683.00     1.365     23.51    0.0   69.0
  CC-S1                   16.43          17      0.00    200.00    200.00     0.946      6.39    0.0    0.0
  CC-S2                   16.18          30      0.00    200.00    200.00     0.932      6.24    0.0    0.0
  JK-R1                    0.16           1      0.00   1000.00   1000.00     0.047      0.36    0.0    0.0
  JK-R2                    8.45          16      0.00   1000.00   1000.00     2.434     21.69    0.0    0.0
  JK-S                     3.46          34      0.00    300.00    300.00     0.299      5.82    0.0    0.0
  XR-1                    97.91           2      0.00     95.00     95.00     2.679      9.61    0.0    0.0
  XR-2                    93.94           2      0.00     95.00     95.00     2.570      8.77    0.0    0.0
  XR-3                     0.00           1      0.00     95.00     95.00     0.000      0.00    0.0    0.0
  XR-4                     0.00           1      0.00     95.00     95.00     0.000      0.00    0.0    0.0
  

  Analysis begun on:  Fri Jun 30 17:27:38 2023
  Analysis ended on:  Fri Jun 30 17:27:59 2023
  Total elapsed time: 00:00:21