
  OWA STORM WATER MANAGEMENT MODEL - VERSION v5.1.14 (OWA 2022-07-31)
  --------------------------------------------------------------

  WARNING 04: minimum elevation drop used for Conduit WS02004404WS02004405
  WARNING 03: negative offset ignored for Link YS02001904YS02001907
  
  *********************************************************
  NOTE: The summary statistics displayed in this report are
  based on results found at every computational time step,  
  not just on results from each reporting time step.
  *********************************************************
  
  ****************
  Analysis Options
  ****************
  Flow Units ............... LPS
  Process Models:
    Rainfall/Runoff ........ YES
    RDII ................... NO
    Snowmelt ............... NO
    Groundwater ............ NO
    Flow Routing ........... YES
    Ponding Allowed ........ NO
    Water Quality .......... NO
  Infiltration Method ...... HORTON
  Flow Routing Method ...... DYNWAVE
  Surcharge Method ......... EXTRAN
  Starting Date ............ 08/28/2015 08:00:00
  Ending Date .............. 08/28/2015 16:00:00
  Antecedent Dry Days ...... 8.0
  Report Time Step ......... 00:01:00
  Wet Time Step ............ 00:01:00
  Dry Time Step ............ 00:01:00
  Routing Time Step ........ 30.00 sec
  Variable Time Step ....... YES
  Maximum Trials ........... 8
  Number of Threads ........ 1
  Head Tolerance ........... 0.001500 m
  
  
  **************************        Volume         Depth
  Runoff Quantity Continuity     hectare-m            mm
  **************************     ---------       -------
  Initial LID Storage ......         0.072         1.184
  Total Precipitation ......         2.446        40.385
  Evaporation Loss .........         0.000         0.000
  Infiltration Loss ........         0.190         3.135
  Surface Runoff ...........         1.797        29.659
  Final Storage ............         0.533         8.793
  Continuity Error (%) .....        -0.041
  
  
  **************************        Volume        Volume
  Flow Routing Continuity        hectare-m      10^6 ltr
  **************************     ---------     ---------
  Dry Weather Inflow .......         0.630         6.296
  Wet Weather Inflow .......         1.797        17.967
  Groundwater Inflow .......         0.000         0.000
  RDII Inflow ..............         0.000         0.000
  External Inflow ..........         0.105         1.045
  External Outflow .........         1.972        19.718
  Flooding Loss ............         0.470         4.697
  Evaporation Loss .........         0.000         0.000
  Exfiltration Loss ........         0.000         0.000
  Initial Stored Volume ....         0.303         3.031
  Final Stored Volume ......         0.402         4.020
  Continuity Error (%) .....        -0.340
  
  
  *************************
  Highest Continuity Errors
  *************************
  Node YS02001583 (-8.99%)
  Node YS02001884 (4.99%)
  Node HS02004842 (1.93%)
  Node HS02004817 (1.60%)
  Node YS02001774 (1.07%)
  
  
  ***************************
  Time-Step Critical Elements
  ***************************
  Link WS02006252WS02006251 (68.11%)
  Link WS02006280WS02006229 (14.77%)
  Link WS02006238WS02006235 (6.82%)
  Link WS02004404WS02004405 (1.20%)
  
  
  ********************************
  Highest Flow Instability Indexes
  ********************************
  Link WS02006113WS02006111 (39)
  Link WS02006111WS02006112 (16)
  Link WS02006256WS02006235 (11)
  Link WS02006252WS02006251 (11)
  Link WS02004404WS02004405 (10)
  
  
  *************************
  Routing Time Step Summary
  *************************
  Minimum Time Step           :     0.01 sec
  Average Time Step           :     1.53 sec
  Maximum Time Step           :     6.46 sec
  Percent in Steady State     :    -0.00
  Average Iterations per Step :     2.78
  Percent Not Converging      :     8.15
  
  
  ***************************
  Subcatchment Runoff Summary
  ***************************
  
  ------------------------------------------------------------------------------------------------------------------------------
                            Total      Total      Total      Total     Imperv       Perv      Total       Total     Peak  Runoff
                           Precip      Runon       Evap      Infil     Runoff     Runoff     Runoff      Runoff   Runoff   Coeff
  Subcatchment                 mm         mm         mm         mm         mm         mm         mm    10^6 ltr      LPS
  ------------------------------------------------------------------------------------------------------------------------------
  sub0                      40.39       0.00       0.00       0.97      36.30       1.86      38.16        0.03    20.27   0.945
  sub1                      40.39       0.00       0.00       1.44      31.10       2.54      33.64        0.22   116.26   0.833
  sub10                     40.39       0.00       0.00       0.93      29.15       1.70      30.85        0.34   187.55   0.764
  sub11                     40.39       0.00       0.00       0.85      27.10       1.59      28.68        0.33   198.83   0.710
  sub12                     40.39       0.00       0.00       1.49      27.55       2.77      30.32        0.27   168.96   0.751
  sub14                     40.39       0.00       0.00       0.92      25.66       1.70      27.37        0.26   151.68   0.678
  sub15                     40.39       0.00       0.00       4.08      23.07       6.16      29.23        0.50   245.53   0.724
  sub16                     40.39       0.00       0.00       4.36      22.50       7.11      29.62        0.31   166.76   0.733
  sub17                     40.39       0.00       0.00       4.66      24.84       7.44      32.28        0.28   145.21   0.799
  sub2                      40.39       0.00       0.00       6.31      22.73       7.52      30.25        0.28   113.03   0.749
  sub22                     40.39       0.00       0.00       7.15      21.53       9.66      31.20        1.97   876.24   0.773
  sub23                     40.39       0.00       0.00       5.42      22.18       8.06      30.24        1.44   701.50   0.749
  sub3                      40.39       0.00       0.00       6.70      22.50       7.01      29.51        0.66   240.07   0.731
  sub4                      40.39       0.00       0.00       1.55      30.59       2.38      32.97        0.69   265.22   0.817
  sub5                      40.39       0.00       0.00       0.83      30.09       1.52      31.61        0.36   192.30   0.783
  sub60                     40.39       0.00       0.00       1.32      26.50       2.42      28.92        0.38   226.81   0.716
  sub61                     40.39       0.00       0.00       2.02      26.48       3.59      30.07        0.55   323.61   0.745
  sub62                     40.39       0.00       0.00       0.90      28.22       1.64      29.86        0.82   447.15   0.739
  sub63                     40.39       0.00       0.00       3.65      22.68       5.94      28.61        0.65   346.32   0.709
  sub64                     40.39       0.00       0.00       1.76      25.81       2.96      28.77        0.69   349.88   0.712
  sub65                     40.39       0.00       0.00       1.62      27.86       2.70      30.56        0.84   405.26   0.757
  sub66                     40.39       0.00       0.00       4.17      21.91       5.12      27.03        1.26   494.75   0.669
  sub67                     40.39       0.00       0.00       0.90      28.94       1.71      30.65        0.57   362.27   0.759
  sub68                     40.39       0.00       0.00       1.55      25.56       2.76      28.31        0.78   441.62   0.701
  sub69                     40.39       0.00       0.00       1.38      27.13       3.42      30.55        1.13   540.46   0.757
  sub7                      40.39       0.00       0.00       0.98      27.51       1.83      29.34        0.10    60.23   0.726
  sub70                     40.39       0.00       0.00       4.47      21.72       6.77      28.48        0.82   291.68   0.705
  sub71                     40.39       0.00       0.00       0.83      25.63       1.48      27.12        0.71   361.15   0.671
  sub72                     40.39       0.00       0.00       0.79      27.67       1.38      29.05        0.40   180.75   0.719
  sub8                      40.39       0.00       0.00       0.96      26.73       1.78      28.51        0.18   106.92   0.706
  sub9                      40.39       0.00       0.00       0.93      25.91       1.72      27.63        0.13    77.83   0.684
  

  ***********************
  LID Performance Summary
  ***********************

  --------------------------------------------------------------------------------------------------------------------
                                         Total      Evap     Infil   Surface    Drain    Initial     Final  Continuity
                                        Inflow      Loss      Loss   Outflow   Outflow   Storage   Storage       Error
  Subcatchment      LID Control             mm        mm        mm        mm        mm        mm        mm           %
  --------------------------------------------------------------------------------------------------------------------
  sub1              GreenRoof            40.39      0.00      0.00      0.00      0.00      7.05     47.49       -0.11
  sub10             GreenRoof            40.39      0.00      0.00      0.00      0.00      7.05     47.49       -0.11
  sub11             GreenRoof            40.39      0.00      0.00      0.00      0.00      7.05     47.49       -0.11
  sub12             GreenRoof            40.39      0.00      0.00      0.00      0.00      7.05     47.49       -0.11
  sub14             GreenRoof            40.39      0.00      0.00      0.00      0.00      7.05     47.49       -0.11
  sub15             GreenRoof            40.39      0.00      0.00      0.00      0.00      7.05     47.49       -0.11
  sub16             GreenRoof            40.39      0.00      0.00      0.00      0.00      7.05     47.49       -0.11
  sub17             GreenRoof            40.39      0.00      0.00      0.00      0.00      7.05     47.49       -0.11
  sub2              GreenRoof            40.39      0.00      0.00      0.00      0.00      7.05     47.49       -0.11
  sub22             GreenRoof            40.39      0.00      0.00      0.00      0.00      7.05     47.49       -0.11
  sub23             GreenRoof            40.39      0.00      0.00      0.00      0.00      7.05     47.49       -0.11
  sub3              GreenRoof            40.39      0.00      0.00      0.00      0.00      7.05     47.49       -0.11
  sub4              GreenRoof            40.39      0.00      0.00      0.00      0.00      7.05     47.49       -0.11
  sub5              GreenRoof            40.39      0.00      0.00      0.00      0.00      7.05     47.49       -0.11
  sub60             GreenRoof            40.39      0.00      0.00      0.00      0.00      7.05     47.49       -0.11
  sub61             GreenRoof            40.39      0.00      0.00      0.00      0.00      7.05     47.49       -0.11
  sub62             GreenRoof            40.39      0.00      0.00      0.00      0.00      7.05     47.49       -0.11
  sub63             GreenRoof            40.39      0.00      0.00      0.00      0.00      7.05     47.49       -0.11
  sub64             GreenRoof            40.39      0.00      0.00      0.00      0.00      7.05     47.49       -0.11
  sub65             GreenRoof            40.39      0.00      0.00      0.00      0.00      7.05     47.49       -0.11
  sub66             GreenRoof            40.39      0.00      0.00      0.00      0.00      7.05     47.49       -0.11
  sub67             GreenRoof            40.39      0.00      0.00      0.00      0.00      7.05     47.49       -0.11
  sub68             GreenRoof            40.39      0.00      0.00      0.00      0.00      7.05     47.49       -0.11
  sub69             GreenRoof            40.39      0.00      0.00      0.00      0.00      7.05     47.49       -0.11
  sub7              GreenRoof            40.39      0.00      0.00      0.00      0.00      7.05     47.49       -0.11
  sub70             GreenRoof            40.39      0.00      0.00      0.00      0.00      7.05     47.49       -0.11
  sub71             GreenRoof            40.39      0.00      0.00      0.00      0.00      7.05     47.49       -0.11
  sub72             GreenRoof            40.39      0.00      0.00      0.00      0.00      7.05     47.49       -0.11
  sub8              GreenRoof            40.39      0.00      0.00      0.00      0.00      7.05     47.49       -0.11
  sub9              GreenRoof            40.39      0.00      0.00      0.00      0.00      7.05     47.49       -0.11
  
  ******************
  Node Depth Summary
  ******************
  
  ---------------------------------------------------------------------------------
                                 Average  Maximum  Maximum  Time of Max    Reported
                                   Depth    Depth      HGL   Occurrence   Max Depth
  Node                 Type       Meters   Meters   Meters  days hr:min      Meters
  ---------------------------------------------------------------------------------
  HS02004478           JUNCTION     0.14     1.73    10.96     0  01:38        1.29
  HS02004479           JUNCTION     0.20     1.80    11.01     0  01:38        1.51
  HS02004480           JUNCTION     0.17     1.80    11.04     0  01:38        1.47
  HS02004770           JUNCTION     0.19     1.42    11.25     0  01:38        1.42
  HS02004777           JUNCTION     0.22     1.48    11.28     0  01:38        1.44
  HS02004785           JUNCTION     0.11     1.49    11.39     0  01:38        1.31
  HS02004788           JUNCTION     0.09     1.42    11.32     0  01:38        1.30
  HS02004792           JUNCTION     0.12     1.60    11.12     0  01:37        1.60
  HS02004799           JUNCTION     0.22     1.76    10.97     0  01:38        1.66
  HS02004802           JUNCTION     0.24     1.78    10.91     0  01:38        1.38
  HS02004807           JUNCTION     0.20     1.59    10.76     0  01:42        1.54
  HS02004817           JUNCTION     0.51     2.20    11.05     0  01:39        2.20
  HS02004824           JUNCTION     0.08     1.90    11.31     0  01:39        1.90
  HS02004830           JUNCTION     0.09     1.70    11.17     0  01:39        1.70
  HS02004837           JUNCTION     0.07     1.47    11.05     0  01:42        0.88
  HS02004842           JUNCTION     0.37     1.79    11.06     0  01:42        1.18
  HS02004848           JUNCTION     0.05     1.45    11.05     0  01:42        0.85
  HS02004852           JUNCTION     0.05     1.48    10.99     0  01:42        0.89
  HS02004856           JUNCTION     0.11     1.51    10.93     0  01:42        0.93
  HS02004862           JUNCTION     0.06     1.46    10.85     0  01:42        0.91
  HS02004870           JUNCTION     0.06     1.46    10.74     0  01:42        0.94
  HS02004876           JUNCTION     0.09     1.58    10.61     0  01:42        1.10
  HS02004881           JUNCTION     0.05     1.41    10.44     0  01:42        0.98
  HS02004901           JUNCTION     0.20     1.42    11.24     0  01:38        1.42
  WS02001211           JUNCTION     0.63     0.86     5.69     0  01:45        0.86
  WS02001212           JUNCTION     0.37     0.63     5.69     0  01:45        0.60
  WS02001213           JUNCTION     0.59     0.95     5.71     0  01:44        0.94
  WS02003059           JUNCTION     0.65     0.96     5.65     0  01:47        0.93
  WS02003060           JUNCTION     0.37     0.68     5.61     0  01:47        0.68
  WS02003066           JUNCTION     0.22     0.45     6.01     0  01:39        0.45
  WS02003067           JUNCTION     0.54     0.94     6.26     0  01:39        0.92
  WS02003069           JUNCTION     0.41     0.77     5.35     0  01:48        0.76
  WS02003072           JUNCTION     0.48     0.80     5.18     0  01:47        0.80
  WS02003073           JUNCTION     0.29     0.51     4.58     0  01:48        0.51
  WS02004138           JUNCTION     0.13     0.14     7.39     0  00:29        0.14
  WS02004139           JUNCTION     0.57     0.77     5.68     0  01:43        0.76
  WS02004401           JUNCTION     0.70     2.48     8.48     0  01:37        1.84
  WS02004402           JUNCTION     0.73     2.40     8.36     0  01:37        1.79
  WS02004403           JUNCTION     0.74     2.20     8.13     0  01:37        1.70
  WS02004404           JUNCTION     0.81     2.25     8.10     0  01:37        1.68
  WS02004405           JUNCTION     0.80     2.18     8.03     0  01:37        1.61
  WS02004406           JUNCTION     0.80     2.14     7.97     0  01:37        1.49
  WS02004407           JUNCTION     0.23     0.84     7.16     0  01:41        0.84
  WS02004409           JUNCTION     0.49     1.33     7.10     0  01:41        1.31
  WS02004410           JUNCTION     0.50     1.28     7.00     0  01:39        1.24
  WS02004411           JUNCTION     0.52     1.25     6.93     0  01:39        1.16
  WS02004412           JUNCTION     0.53     1.19     6.83     0  01:39        1.07
  WS02004413           JUNCTION     0.68     1.97     7.44     0  01:39        1.13
  WS02006109           JUNCTION     0.84     2.64     9.26     0  01:37        2.64
  WS02006110           JUNCTION     0.80     2.76     9.34     0  01:37        2.35
  WS02006111           JUNCTION     0.32     2.68     9.39     0  01:37        1.60
  WS02006112           JUNCTION     0.89     2.68     8.56     0  01:37        2.21
  WS02006113           JUNCTION     0.40     2.73     9.62     0  01:37        1.71
  WS02006115           JUNCTION     0.61     2.66     8.80     0  01:37        1.88
  WS02006116           JUNCTION     0.68     2.46     8.50     0  01:37        1.91
  WS02006228           JUNCTION     0.86     3.03     9.68     0  01:37        2.94
  WS02006229           JUNCTION     0.85     3.25     9.94     0  01:37        3.10
  WS02006230           JUNCTION     0.81     2.65     9.39     0  01:37        2.65
  WS02006231           JUNCTION     0.57     2.24     9.36     0  01:37        2.19
  WS02006232           JUNCTION     0.68     2.18     9.22     0  01:37        2.18
  WS02006234           JUNCTION     0.57     1.96     9.12     0  01:37        1.96
  WS02006235           JUNCTION     0.59     2.00     9.16     0  01:37        1.95
  WS02006238           JUNCTION     0.61     2.07     9.21     0  01:37        1.96
  WS02006239           JUNCTION     0.56     1.87     9.08     0  01:37        1.81
  WS02006240           JUNCTION     0.52     1.81     9.10     0  01:37        1.81
  WS02006242           JUNCTION     0.57     1.55     8.82     0  01:36        1.55
  WS02006243           JUNCTION     0.46     1.48     8.90     0  01:36        1.38
  WS02006245           JUNCTION     0.45     1.56     9.04     0  01:37        1.30
  WS02006247           JUNCTION     0.47     1.47     8.97     0  01:37        1.24
  WS02006248           JUNCTION     0.42     1.10     8.69     0  01:37        1.10
  WS02006249           JUNCTION     0.45     1.09     8.69     0  01:37        1.09
  WS02006251           JUNCTION     0.47     2.10     9.77     0  01:42        2.04
  WS02006252           JUNCTION     0.33     1.50     9.74     0  00:00        1.50
  WS02006253           JUNCTION     0.51     2.70    10.35     0  01:42        2.32
  WS02006256           JUNCTION     0.86     2.35     9.28     0  00:00        2.35
  WS02006280           JUNCTION     0.18     1.83    10.10     0  01:37        1.60
  WS02006284           JUNCTION     0.46     2.07    10.47     0  01:38        1.74
  WS02006287           JUNCTION     0.19     1.89    10.84     0  01:38        1.46
  WSF200               JUNCTION     0.21     0.55     5.78     0  01:40        0.55
  YS02001580           JUNCTION     0.03     1.05     9.59     0  01:39        0.70
  YS02001583           JUNCTION     0.07     1.10     9.60     0  01:39        0.75
  YS02001586           JUNCTION     0.10     1.13     9.30     0  01:39        1.09
  YS02001590           JUNCTION     0.18     1.40     9.26     0  01:37        1.33
  YS02001593           JUNCTION     0.12     1.42     9.28     0  01:39        1.26
  YS02001596           JUNCTION     0.16     1.74     9.16     0  01:39        1.63
  YS02001600           JUNCTION     0.20     1.87     9.00     0  01:37        1.85
  YS02001601           JUNCTION     0.39     2.06     8.90     0  01:37        2.06
  YS02001602           JUNCTION     0.31     1.87     8.77     0  01:39        1.87
  YS02001605           JUNCTION     0.29     1.77     8.68     0  01:39        1.77
  YS02001607           JUNCTION     0.30     1.64     8.49     0  01:47        1.63
  YS02001610           JUNCTION     0.35     1.68     8.48     0  01:39        1.68
  YS02001613           JUNCTION     0.31     1.68     8.52     0  01:39        1.63
  YS02001616           JUNCTION     0.24     1.61     8.52     0  01:39        1.55
  YS02001619           JUNCTION     0.21     1.61     8.54     0  01:39        1.53
  YS02001622           JUNCTION     0.20     1.62     8.52     0  01:39        1.53
  YS02001625           JUNCTION     0.48     1.78     8.38     0  01:39        1.78
  YS02001629           JUNCTION     0.31     1.85     8.40     0  01:39        1.79
  YS02001633           JUNCTION     0.39     1.87     8.32     0  01:43        1.77
  YS02001641           JUNCTION     0.38     1.60     8.04     0  01:43        1.50
  YS02001644           JUNCTION     0.38     1.51     7.94     0  01:43        1.42
  YS02001647           JUNCTION     0.18     1.18     7.79     0  01:46        1.13
  YS02001649           JUNCTION     0.26     1.27     7.66     0  01:46        1.22
  YS02001652           JUNCTION     0.15     1.15     7.75     0  01:46        1.03
  YS02001655           JUNCTION     0.08     0.80     7.65     0  01:47        0.80
  YS02001658           JUNCTION     0.05     0.49     7.63     0  01:48        0.44
  YS02001661           JUNCTION     0.10     0.32     7.72     0  01:40        0.32
  YS02001664           JUNCTION     0.03     0.22     8.15     0  01:40        0.22
  YS02001745           JUNCTION     0.03     0.20     7.72     0  01:39        0.20
  YS02001748           JUNCTION     0.04     0.41     7.49     0  01:46        0.41
  YS02001751           JUNCTION     0.07     0.63     7.51     0  01:46        0.60
  YS02001754           JUNCTION     0.14     0.91     7.52     0  01:47        0.90
  YS02001757           JUNCTION     0.34     1.24     7.50     0  01:46        1.23
  YS02001759           JUNCTION     0.27     1.17     7.53     0  01:47        1.12
  YS02001762           JUNCTION     0.25     1.14     7.54     0  01:47        1.08
  YS02001765           JUNCTION     0.22     1.10     7.55     0  01:47        1.04
  YS02001767           JUNCTION     0.20     1.06     7.55     0  01:47        1.02
  YS02001770           JUNCTION     0.21     1.02     7.51     0  01:46        1.01
  YS02001774           JUNCTION     0.27     1.09     7.51     0  01:48        1.08
  YS02001779           JUNCTION     0.11     0.84     7.52     0  01:47        0.82
  YS02001783           JUNCTION     0.16     1.17     7.32     0  01:54        1.10
  YS02001784           JUNCTION     0.19     1.30     7.37     0  01:54        1.10
  YS02001786           JUNCTION     0.17     1.32     7.35     0  01:54        0.99
  YS02001788           JUNCTION     0.12     1.29     7.27     0  01:54        0.92
  YS02001790           JUNCTION     0.16     1.56     7.21     0  01:53        1.15
  YS02001791           JUNCTION     0.12     2.03     7.50     0  01:53        1.21
  YS02001793           JUNCTION     0.13     1.87     6.71     0  01:53        1.80
  YS02001882           JUNCTION     0.20     1.33     8.04     0  01:46        1.33
  YS02001884           JUNCTION     0.29     1.43     8.05     0  01:46        1.42
  YS02001887           JUNCTION     0.37     1.51     8.04     0  01:46        1.50
  YS02001890           JUNCTION     0.40     1.54     8.04     0  01:46        1.53
  YS02001895           JUNCTION     0.17     1.29     8.04     0  01:46        1.28
  YS02001898           JUNCTION     0.18     1.30     8.03     0  01:46        1.27
  YS02001901           JUNCTION     0.29     1.41     8.02     0  01:46        1.41
  YS02001904           JUNCTION     0.28     1.39     8.02     0  01:46        1.39
  YS02001907           JUNCTION     0.60     1.73     8.02     0  01:46        1.73
  YS02001910           JUNCTION     0.39     1.53     8.04     0  01:46        1.53
  YS02001915           JUNCTION     0.20     1.33     8.05     0  01:46        1.33
  YS02001918           JUNCTION     0.08     0.99     8.06     0  01:45        0.99
  YS02001920           JUNCTION     0.16     1.05     8.05     0  01:45        1.02
  YS02001923           JUNCTION     0.05     0.82     8.08     0  01:45        0.80
  YS02001926           JUNCTION     0.10     0.63     8.08     0  01:45        0.63
  YS02001929           JUNCTION     0.04     0.37     8.06     0  01:45        0.36
  YS02006553           JUNCTION     0.60     1.71     8.00     0  01:45        1.71
  YS02006556           JUNCTION     0.58     1.65     7.97     0  01:46        1.65
  YS02006558           JUNCTION     0.62     1.68     7.95     0  01:46        1.67
  YS02006561           JUNCTION     0.09     0.69     7.35     0  01:45        0.67
  YS02163301           JUNCTION     0.33     1.90     8.42     0  01:39        1.77
  YS02163601           JUNCTION     0.43     1.79     8.19     0  01:43        1.66
  YS02164001           JUNCTION     0.37     1.66     8.11     0  01:43        1.54
  YSB1154              JUNCTION     0.34     1.88    10.94     0  01:38        1.69
  YSB1171              JUNCTION     0.49     1.95    10.85     0  01:38        1.82
  YSB1174              JUNCTION     0.29     1.79    10.90     0  01:38        1.62
  YSB6556              JUNCTION     0.24     1.75    10.92     0  01:38        1.57
  CC-1                 OUTFALL      0.00     0.00     0.00     0  00:00        0.00
  CC-2                 OUTFALL      0.00     0.00     0.00     0  00:00        0.00
  JK-1                 OUTFALL      0.00     0.00     0.00     0  00:00        0.00
  JK-2                 OUTFALL      0.00     0.00     0.00     0  00:00        0.00
  WSC                  OUTFALL      0.29     0.51     1.18     0  01:48        0.51
  CC-storage           STORAGE      1.03     1.59     7.09     0  02:20        1.59
  JK-storage           STORAGE      2.21     5.80     6.60     0  01:54        5.80
  XR-storage           STORAGE      8.01     9.26     7.26     0  08:00        9.26
  
  
  *******************
  Node Inflow Summary
  *******************
  
  -------------------------------------------------------------------------------------------------
                                  Maximum  Maximum                  Lateral       Total        Flow
                                  Lateral    Total  Time of Max      Inflow      Inflow     Balance
                                   Inflow   Inflow   Occurrence      Volume      Volume       Error
  Node                 Type           LPS      LPS  days hr:min    10^6 ltr    10^6 ltr     Percent
  -------------------------------------------------------------------------------------------------
  HS02004478           JUNCTION      0.00  2174.41     0  01:38           0        6.16      -0.024
  HS02004479           JUNCTION      0.00   377.24     0  01:38           0       0.632       0.104
  HS02004480           JUNCTION      0.00  2155.65     0  01:38           0        4.97       0.045
  HS02004770           JUNCTION    701.50   831.20     0  01:38        1.44        1.67       0.173
  HS02004777           JUNCTION      0.03   849.67     0  01:38    0.000864        1.57       0.321
  HS02004785           JUNCTION      0.15   850.39     0  01:38     0.00432        1.57       0.028
  HS02004788           JUNCTION    247.20  1087.10     0  01:38       0.551        2.12      -0.055
  HS02004792           JUNCTION    876.52  1651.66     0  01:38        1.98         4.1       0.010
  HS02004799           JUNCTION    151.68  1787.63     0  01:39       0.261        4.35       0.061
  HS02004802           JUNCTION      0.00   320.64     0  02:04           0        1.24       0.314
  HS02004807           JUNCTION    198.83   502.43     0  01:38       0.333         1.3       0.300
  HS02004817           JUNCTION      0.60   501.82     0  01:38      0.0173        1.04       1.631
  HS02004824           JUNCTION    265.27   717.84     0  01:38       0.689        1.25       0.013
  HS02004830           JUNCTION      0.15   711.96     0  01:38     0.00432       0.789       0.085
  HS02004837           JUNCTION    193.90   996.13     0  01:39       0.523       0.991       0.066
  HS02004842           JUNCTION      0.00   852.62     0  01:39           0       0.673       1.972
  HS02004848           JUNCTION    240.07  1069.47     0  01:39       0.664        1.18       0.027
  HS02004852           JUNCTION      0.00  1031.32     0  01:40           0        1.03       0.003
  HS02004856           JUNCTION     77.83  1043.64     0  01:40       0.133        1.16       0.115
  HS02004862           JUNCTION    113.23  1148.90     0  01:40       0.288        1.45       0.010
  HS02004870           JUNCTION    106.92  1264.86     0  01:40       0.182        1.63       0.012
  HS02004876           JUNCTION    116.26  1404.51     0  01:41       0.224        1.85       0.036
  HS02004881           JUNCTION     60.23  1365.64     0  01:41      0.0989        1.95       0.026
  HS02004901           JUNCTION    166.76   363.55     0  01:43        0.31       0.365       0.484
  WS02001211           JUNCTION      7.35   356.02     0  01:43       0.212        5.45       0.609
  WS02001212           JUNCTION      0.00   427.63     0  01:41           0        5.42       0.289
  WS02001213           JUNCTION      0.00   369.06     0  01:41           0        5.42       0.323
  WS02003059           JUNCTION      0.00   442.39     0  01:40           0        5.42       0.590
  WS02003060           JUNCTION     16.53  1512.27     0  01:47       0.476        13.6       0.109
  WS02003066           JUNCTION      0.00  1258.65     0  01:41           0        7.73       0.019
  WS02003067           JUNCTION      0.00  1245.95     0  01:42           0        7.74       0.057
  WS02003069           JUNCTION      0.32  1474.66     0  01:48     0.00922        13.5       0.115
  WS02003072           JUNCTION      0.00  1466.34     0  01:48           0        13.5       0.155
  WS02003073           JUNCTION      1.82  1471.49     0  01:47      0.0524        13.6       0.160
  WS02004138           JUNCTION      0.00   380.00     0  00:00           0        5.25       0.053
  WS02004139           JUNCTION      0.32   303.78     0  01:42     0.00924        5.26       0.509
  WS02004401           JUNCTION      0.00  1280.40     0  01:39           0        7.84       0.133
  WS02004402           JUNCTION      0.00  1281.29     0  01:39           0        7.83       0.135
  WS02004403           JUNCTION      0.00  1282.56     0  01:39           0        7.82       0.131
  WS02004404           JUNCTION      0.16  1283.21     0  01:39     0.00467        7.82       0.108
  WS02004405           JUNCTION      0.04  1284.76     0  01:39      0.0011        7.81       0.164
  WS02004406           JUNCTION      0.00  1287.30     0  01:39           0         7.8       0.269
  WS02004407           JUNCTION      0.00  1288.11     0  01:39           0        7.78       0.022
  WS02004409           JUNCTION      0.00  1332.56     0  01:38           0        7.77       0.045
  WS02004410           JUNCTION      0.00  1299.17     0  01:38           0        7.77       0.060
  WS02004411           JUNCTION      0.00  1257.74     0  01:38           0        7.77       0.074
  WS02004412           JUNCTION      0.00  1245.78     0  01:42           0        7.76       0.100
  WS02004413           JUNCTION      0.00  1246.01     0  01:42           0        7.75       0.178
  WS02006109           JUNCTION      1.23  1211.47     0  01:37      0.0354        7.63       0.112
  WS02006110           JUNCTION      0.00  1210.64     0  01:37           0         7.6       0.096
  WS02006111           JUNCTION      0.00  1245.72     0  01:37           0        7.59      -0.006
  WS02006112           JUNCTION    145.21  1279.02     0  01:39       0.277        7.87       0.226
  WS02006113           JUNCTION      0.00  1210.50     0  01:37           0         7.6       0.029
  WS02006115           JUNCTION      0.00  1279.39     0  01:39           0        7.85       0.088
  WS02006116           JUNCTION      0.00  1279.92     0  01:39           0        7.85       0.033
  WS02006228           JUNCTION      0.00  1210.65     0  01:37           0         7.6       0.049
  WS02006229           JUNCTION      0.00  2069.06     0  01:43           0         8.9       0.075
  WS02006230           JUNCTION     10.28   910.33     0  01:42       0.296         4.1       0.158
  WS02006231           JUNCTION      0.00   453.54     0  01:45           0        3.42      -0.041
  WS02006232           JUNCTION      0.00   453.60     0  01:43           0         3.4       0.153
  WS02006234           JUNCTION      0.00   453.34     0  01:45           0        3.37      -0.112
  WS02006235           JUNCTION      0.00   418.20     0  01:55           0        3.33       0.055
  WS02006238           JUNCTION      0.00   415.75     0  01:41           0        3.16      -0.276
  WS02006239           JUNCTION      0.00   415.39     0  01:41           0        3.13      -0.355
  WS02006240           JUNCTION      0.00   415.02     0  01:42           0        3.11      -0.015
  WS02006242           JUNCTION      0.00   422.59     0  01:36           0         3.1      -0.014
  WS02006243           JUNCTION      0.00   567.27     0  01:36           0        2.85      -0.223
  WS02006245           JUNCTION      0.00   426.38     0  01:37           0        2.86       0.525
  WS02006247           JUNCTION      0.00   616.23     0  01:37           0        2.86       0.002
  WS02006248           JUNCTION      0.00   630.01     0  01:37           0        2.94      -0.198
  WS02006249           JUNCTION      0.00  1301.43     0  01:44           0        4.42       0.282
  WS02006251           JUNCTION      0.08  1287.14     0  01:44     0.00222        4.44      -0.031
  WS02006252           JUNCTION      0.00   400.00     0  00:00           0        2.41      -0.069
  WS02006253           JUNCTION     20.27  1238.01     0  01:42      0.0309        2.03      -0.010
  WS02006256           JUNCTION      0.00   300.00     0  00:00           0       0.526      -0.204
  WS02006280           JUNCTION      0.00  2068.15     0  01:43           0        6.13      -0.028
  WS02006284           JUNCTION      0.10  2067.34     0  01:43     0.00275        6.13       0.008
  WS02006287           JUNCTION      0.00  2066.27     0  01:43           0        6.13       0.045
  WSF200               JUNCTION      0.00  1254.38     0  01:42           0        7.73       0.010
  YS02001580           JUNCTION      0.00   137.29     0  01:38           0     0.00452       0.118
  YS02001583           JUNCTION      0.00   215.99     0  01:39           0      0.0149      -8.250
  YS02001586           JUNCTION    291.68   292.56     0  01:44       0.823       0.835       0.209
  YS02001590           JUNCTION      0.00   292.35     0  01:44           0        0.82      -0.045
  YS02001593           JUNCTION      0.00   292.20     0  01:43           0        0.82       0.019
  YS02001596           JUNCTION      0.00   292.06     0  01:43           0        0.82      -0.017
  YS02001600           JUNCTION      0.00   292.30     0  01:44           0        0.82       0.020
  YS02001601           JUNCTION    540.46   825.74     0  01:42        1.13        1.95       0.040
  YS02001602           JUNCTION      0.00   583.48     0  01:38           0        1.67       0.020
  YS02001605           JUNCTION      0.00   583.59     0  01:38           0        1.66       0.018
  YS02001607           JUNCTION      0.00   583.65     0  01:39           0        1.66       0.113
  YS02001610           JUNCTION      0.00   560.60     0  01:38           0        1.66       0.141
  YS02001613           JUNCTION      0.00   522.94     0  01:38           0        1.65       0.104
  YS02001616           JUNCTION      0.00   493.65     0  01:39           0        1.65       0.022
  YS02001619           JUNCTION    494.75   938.58     0  01:39        1.26        2.91       0.009
  YS02001622           JUNCTION      0.00   942.52     0  01:39           0        2.91      -0.005
  YS02001625           JUNCTION      0.00   938.60     0  01:39           0        2.91       0.325
  YS02001629           JUNCTION      0.00   940.62     0  01:39           0         2.9      -0.022
  YS02001633           JUNCTION    405.46  1315.06     0  01:41       0.847        3.75       0.088
  YS02001641           JUNCTION      0.00  1317.82     0  01:41           0        3.75       0.075
  YS02001644           JUNCTION    349.92  1666.29     0  01:41       0.692        4.44       0.075
  YS02001647           JUNCTION      0.00  1666.84     0  01:41           0        4.42       0.004
  YS02001649           JUNCTION      0.00  2066.72     0  01:41           0        5.08       0.002
  YS02001652           JUNCTION      0.00   448.15     0  01:41           0       0.653      -0.430
  YS02001655           JUNCTION      0.15   362.88     0  01:40     0.00443       0.654       0.313
  YS02001658           JUNCTION      0.00   345.96     0  01:40           0       0.649      -0.013
  YS02001661           JUNCTION      0.00   346.21     0  01:40           0        0.65       0.043
  YS02001664           JUNCTION    346.32   346.32     0  01:40        0.65        0.65      -0.007
  YS02001745           JUNCTION    226.81   226.81     0  01:39        0.38        0.38       0.195
  YS02001748           JUNCTION      0.04   226.86     0  01:39      0.0013       0.381      -0.267
  YS02001751           JUNCTION      0.01   227.66     0  01:39    0.000317       0.382       0.450
  YS02001754           JUNCTION      0.26   248.80     0  01:47     0.00749       0.396      -0.573
  YS02001757           JUNCTION      0.00  2737.33     0  01:42           0        6.88       0.068
  YS02001759           JUNCTION    323.65   658.08     0  01:42       0.553        1.42      -0.008
  YS02001762           JUNCTION      0.00   396.12     0  01:43           0       0.868       0.010
  YS02001765           JUNCTION      0.00   431.19     0  01:43           0       0.861       0.014
  YS02001767           JUNCTION      0.54   418.67     0  01:43      0.0154       0.852       0.016
  YS02001770           JUNCTION    447.31   447.31     0  01:40       0.823       0.886      -0.023
  YS02001774           JUNCTION      0.00   118.49     0  01:40           0      0.0918       1.086
  YS02001779           JUNCTION      0.01    76.39     0  01:43    0.000144      0.0323      -0.042
  YS02001783           JUNCTION      0.00  1076.33     0  01:44           0        2.51       0.010
  YS02001784           JUNCTION      1.06  1077.34     0  01:44      0.0305        2.54       0.026
  YS02001786           JUNCTION      0.06  1076.92     0  01:44     0.00162        2.54       0.018
  YS02001788           JUNCTION      0.07  1074.26     0  01:45     0.00204        2.54       0.008
  YS02001790           JUNCTION      0.15  1079.43     0  01:45     0.00446        2.55       0.005
  YS02001791           JUNCTION      0.00  1176.64     0  01:46           0        2.55       0.005
  YS02001793           JUNCTION      0.00  1117.58     0  01:46           0        2.55       0.016
  YS02001882           JUNCTION      0.00    47.88     0  01:40           0      0.0124       5.399
  YS02001884           JUNCTION      0.00    87.05     0  01:40           0      0.0483       5.252
  YS02001887           JUNCTION    362.72   362.72     0  01:39       0.583       0.616       0.729
  YS02001890           JUNCTION      0.00   337.90     0  01:41           0       0.575       0.879
  YS02001895           JUNCTION      0.00   341.40     0  01:41           0        0.57       0.310
  YS02001898           JUNCTION      0.00   345.40     0  01:41           0       0.569       0.018
  YS02001901           JUNCTION      0.00   351.63     0  01:41           0       0.572       0.561
  YS02001904           JUNCTION      0.00   353.20     0  01:41           0       0.582       0.481
  YS02001907           JUNCTION      0.00   757.34     0  01:48           0        1.77       1.019
  YS02001910           JUNCTION      0.00   559.75     0  01:48           0        1.19       0.601
  YS02001915           JUNCTION    361.17   559.22     0  01:48        0.71         1.2       0.128
  YS02001918           JUNCTION      0.00   288.62     0  01:47           0       0.492       0.033
  YS02001920           JUNCTION      2.87   267.44     0  01:47      0.0827       0.487       0.192
  YS02001923           JUNCTION      0.04   248.51     0  01:47     0.00109       0.402      -0.065
  YS02001926           JUNCTION      0.05   222.04     0  01:45      0.0015       0.401       0.115
  YS02001929           JUNCTION    180.75   180.75     0  01:42       0.399       0.399      -0.007
  YS02006553           JUNCTION      0.00   757.91     0  01:48           0        1.76       0.675
  YS02006556           JUNCTION      0.00   757.58     0  01:48           0        1.77       0.459
  YS02006558           JUNCTION    442.50  1089.22     0  01:43       0.805        2.55       0.139
  YS02006561           JUNCTION      0.00  1087.83     0  01:43           0        2.51      -0.001
  YS02163301           JUNCTION      0.00   910.06     0  01:41           0         2.9       0.055
  YS02163601           JUNCTION      0.11  1316.10     0  01:41     0.00317        3.75       0.130
  YS02164001           JUNCTION      0.00  1317.29     0  01:41           0        3.74       0.064
  YSB1154              JUNCTION    192.30   192.30     0  01:40       0.358       0.359       0.405
  YSB1171              JUNCTION      0.00   368.15     0  01:38           0       0.631       1.015
  YSB1174              JUNCTION    168.96   168.96     0  01:39       0.265       0.266       0.465
  YSB6556              JUNCTION      0.00   192.72     0  01:40           0        0.36       0.327
  CC-1                 OUTFALL       0.00   683.00     0  00:00           0        2.96       0.000
  CC-2                 OUTFALL       0.00   683.00     0  00:00           0        1.55       0.000
  JK-1                 OUTFALL       0.00  1000.00     0  00:00           0        1.11       0.000
  JK-2                 OUTFALL       0.00  1000.00     0  00:00           0       0.561       0.000
  WSC                  OUTFALL       0.00  1470.84     0  01:48           0        13.5       0.000
  CC-storage           STORAGE       0.00  2547.71     0  01:42           0        9.09      -0.139
  JK-storage           STORAGE       0.00  1112.99     0  01:46           0         2.7      -0.597
  XR-storage           STORAGE     200.00   200.00     0  00:00        5.76        6.36       0.001
  
  
  **********************
  Node Surcharge Summary
  **********************
  
  Surcharging occurs when water rises above the top of the highest conduit.
  ---------------------------------------------------------------------
                                               Max. Height   Min. Depth
                                   Hours       Above Crown    Below Rim
  Node                 Type      Surcharged         Meters       Meters
  ---------------------------------------------------------------------
  HS02004478           JUNCTION        0.22          0.812        0.128
  HS02004479           JUNCTION        0.35          1.002        0.048
  HS02004480           JUNCTION        0.39          1.087        0.013
  HS02004770           JUNCTION        0.31          0.720        0.000
  HS02004777           JUNCTION        0.31          0.780        0.000
  HS02004785           JUNCTION        0.26          0.790        0.000
  HS02004788           JUNCTION        0.24          0.720        0.000
  HS02004792           JUNCTION        0.36          0.900        0.000
  HS02004799           JUNCTION        0.45          1.060        0.000
  HS02004802           JUNCTION        0.38          1.067        0.143
  HS02004807           JUNCTION        0.36          0.895        0.325
  HS02004817           JUNCTION        0.85          1.500        0.240
  HS02004824           JUNCTION        0.24          1.202        0.108
  HS02004830           JUNCTION        0.20          1.004        0.326
  HS02004837           JUNCTION        0.17          0.774        0.566
  HS02004842           JUNCTION        0.29          1.091        0.429
  HS02004848           JUNCTION        0.09          0.753        0.617
  HS02004852           JUNCTION        0.12          0.783        0.637
  HS02004856           JUNCTION        0.11          0.736        0.564
  HS02004862           JUNCTION        0.15          0.764        0.536
  HS02004870           JUNCTION        0.17          0.758        0.642
  HS02004876           JUNCTION        0.23          0.882        0.678
  HS02004881           JUNCTION        0.21          0.706        0.744
  HS02004901           JUNCTION        0.32          0.720        0.000
  WS02004401           JUNCTION        1.26          1.476        0.184
  WS02004402           JUNCTION        1.29          1.399        0.341
  WS02004403           JUNCTION        1.30          1.201        0.829
  WS02004404           JUNCTION        1.50          1.254        1.526
  WS02004405           JUNCTION        1.49          1.181        1.619
  WS02004406           JUNCTION        1.46          1.142        1.308
  WS02004409           JUNCTION        0.58          0.331        2.029
  WS02004410           JUNCTION        0.55          0.281        2.259
  WS02004411           JUNCTION        0.52          0.255        2.275
  WS02004412           JUNCTION        0.43          0.192        2.118
  WS02004413           JUNCTION        0.97          0.973        1.227
  WS02006109           JUNCTION        1.67          1.820        0.000
  WS02006110           JUNCTION        1.56          1.850        0.000
  WS02006111           JUNCTION        0.86          1.870        0.000
  WS02006112           JUNCTION        1.60          1.680        0.000
  WS02006113           JUNCTION        0.90          1.930        0.000
  WS02006115           JUNCTION        1.15          1.648        0.602
  WS02006116           JUNCTION        1.17          1.402        0.888
  WS02006228           JUNCTION        1.66          2.200        0.000
  WS02006229           JUNCTION        0.56          1.070        0.000
  WS02006230           JUNCTION        1.44          1.570        0.000
  WS02006231           JUNCTION        1.48          1.530        0.000
  WS02006232           JUNCTION        1.56          1.480        0.000
  WS02006234           JUNCTION        1.49          1.240        0.000
  WS02006235           JUNCTION        1.51          1.290        0.000
  WS02006238           JUNCTION        1.52          1.350        0.080
  WS02006239           JUNCTION        1.45          1.131        0.159
  WS02006240           JUNCTION        1.41          1.098        0.292
  WS02006242           JUNCTION        1.42          0.820        0.000
  WS02006243           JUNCTION        1.37          0.770        0.000
  WS02006245           JUNCTION        1.32          0.850        0.000
  WS02006247           JUNCTION        1.33          0.760        0.000
  WS02006248           JUNCTION        1.27          0.380        0.000
  WS02006249           JUNCTION        1.28          0.390        0.000
  WS02006251           JUNCTION        0.93          1.067        0.113
  WS02006252           JUNCTION        1.36          1.100        0.000
  WS02006253           JUNCTION        1.00          1.663        0.817
  WS02006256           JUNCTION        7.85          2.050        0.000
  WS02006280           JUNCTION        0.45          0.780        0.000
  WS02006284           JUNCTION        0.39          0.787        0.013
  WS02006287           JUNCTION        0.31          0.890        0.000
  YS02001580           JUNCTION        0.21          0.450        0.000
  YS02001583           JUNCTION        0.22          0.462        0.038
  YS02001586           JUNCTION        0.38          0.510        0.000
  YS02001590           JUNCTION        0.45          0.750        0.000
  YS02001593           JUNCTION        0.45          0.798        0.042
  YS02001596           JUNCTION        0.53          1.013        0.057
  YS02001600           JUNCTION        0.65          1.190        0.000
  YS02001601           JUNCTION        0.99          1.440        0.000
  YS02001602           JUNCTION        0.88          1.270        0.000
  YS02001605           JUNCTION        0.82          1.174        0.006
  YS02001607           JUNCTION        0.41          0.638        0.042
  YS02001610           JUNCTION        0.43          0.680        0.000
  YS02001613           JUNCTION        0.40          0.682        0.018
  YS02001616           JUNCTION        0.36          0.610        0.000
  YS02001619           JUNCTION        0.35          0.610        0.000
  YS02001622           JUNCTION        0.35          0.620        0.000
  YS02001625           JUNCTION        0.51          0.780        0.000
  YS02001629           JUNCTION        0.29          0.470        0.000
  YS02001633           JUNCTION        0.52          0.847        0.213
  YS02001641           JUNCTION        0.47          0.601        0.499
  YS02001644           JUNCTION        0.43          0.510        0.410
  YS02001647           JUNCTION        0.17          0.184        0.716
  YS02001649           JUNCTION        0.32          0.270        0.780
  YS02001652           JUNCTION        0.01          0.121        1.009
  YS02001757           JUNCTION        0.36          0.239        0.971
  YS02001759           JUNCTION        0.24          0.168        1.042
  YS02001762           JUNCTION        0.20          0.143        1.007
  YS02001765           JUNCTION        0.12          0.099        1.001
  YS02001767           JUNCTION        0.02          0.059        0.971
  YS02001774           JUNCTION        0.17          0.086        0.964
  YS02001783           JUNCTION        0.37          0.374        1.226
  YS02001784           JUNCTION        0.36          0.505        0.985
  YS02001786           JUNCTION        0.18          0.523        0.907
  YS02001788           JUNCTION        0.14          0.488        0.992
  YS02001790           JUNCTION        0.29          0.762        0.395
  YS02001791           JUNCTION        0.29          1.233        0.687
  YS02001793           JUNCTION        0.33          0.875        1.725
  YS02001882           JUNCTION        0.17          0.327        0.503
  YS02001884           JUNCTION        0.19          0.373        0.497
  YS02001887           JUNCTION        0.22          0.457        0.493
  YS02001890           JUNCTION        0.24          0.486        0.274
  YS02001895           JUNCTION        0.16          0.290        0.460
  YS02001898           JUNCTION        0.14          0.268        0.472
  YS02001901           JUNCTION        0.21          0.415        0.455
  YS02001904           JUNCTION        0.20          0.391        0.459
  YS02001907           JUNCTION        0.43          0.720        0.230
  YS02001910           JUNCTION        0.27          0.529        0.571
  YS02001915           JUNCTION        0.17          0.332        0.668
  YS02001920           JUNCTION        0.05          0.047        1.093
  YS02006553           JUNCTION        0.44          0.714        0.476
  YS02006556           JUNCTION        0.36          0.615        0.735
  YS02006558           JUNCTION        0.36          0.582        0.818
  YS02163301           JUNCTION        0.51          0.904        0.126
  YS02163601           JUNCTION        0.55          0.794        0.286
  YS02164001           JUNCTION        0.47          0.657        0.443
  YSB1154              JUNCTION        0.56          1.183        0.217
  YSB1171              JUNCTION        0.56          1.100        0.000
  YSB1174              JUNCTION        0.48          1.094        0.156
  YSB6556              JUNCTION        0.43          1.047        0.053
  
  
  *********************
  Node Flooding Summary
  *********************
  
  Flooding refers to all water that overflows a node, whether it ponds or not.
  --------------------------------------------------------------------------
                                                             Total   Maximum
                                 Maximum   Time of Max       Flood    Ponded
                        Hours       Rate    Occurrence      Volume     Depth
  Node                 Flooded       LPS   days hr:min    10^6 ltr    Meters
  --------------------------------------------------------------------------
  HS02004770              0.09    245.59      0  01:38       0.043     0.000
  HS02004777              0.01     32.45      0  01:38       0.000     0.000
  HS02004785              0.01    288.42      0  01:38       0.001     0.000
  HS02004788              0.01    410.64      0  01:38       0.003     0.000
  HS02004792              0.04    198.27      0  01:38       0.006     0.000
  HS02004799              0.01     95.20      0  01:38       0.000     0.000
  HS02004901              0.17    363.35      0  01:43       0.133     0.000
  WS02006109              0.14     91.72      0  01:37       0.016     0.000
  WS02006110              0.01     43.21      0  01:37       0.000     0.000
  WS02006111              0.01    379.29      0  01:37       0.001     0.000
  WS02006112              0.01    199.12      0  01:37       0.001     0.000
  WS02006113              0.01    149.09      0  01:37       0.000     0.000
  WS02006228              0.01     43.48      0  01:37       0.000     0.000
  WS02006229              0.01    111.10      0  01:37       0.000     0.000
  WS02006230              0.40    457.07      0  01:43       0.390     0.000
  WS02006231              0.01      8.04      0  01:37       0.000     0.000
  WS02006232              0.11      6.87      0  01:37       0.000     0.000
  WS02006234              0.43    128.55      0  01:43       0.134     0.000
  WS02006235              0.01     33.18      0  01:37       0.000     0.000
  WS02006242              0.56    367.91      0  01:36       0.230     0.000
  WS02006243              0.01    457.66      0  01:36       0.002     0.000
  WS02006245              0.01    303.31      0  01:37       0.001     0.000
  WS02006247              0.01    517.53      0  01:37       0.002     0.000
  WS02006248              0.68    584.62      0  01:37       0.649     0.000
  WS02006249              1.02   1301.08      0  01:44       2.055     0.000
  WS02006252              0.01    245.63      0  00:00       0.002     0.000
  WS02006256              0.43    294.16      0  01:50       0.273     0.000
  WS02006280              0.01     61.72      0  01:37       0.000     0.000
  WS02006287              0.01     48.88      0  01:38       0.000     0.000
  YS02001580              0.01    101.02      0  01:39       0.000     0.000
  YS02001586              0.01     97.45      0  01:39       0.002     0.000
  YS02001590              0.01     83.34      0  01:37       0.000     0.000
  YS02001600              0.01      7.91      0  01:39       0.000     0.000
  YS02001601              0.32    418.05      0  01:42       0.284     0.000
  YS02001602              0.13     34.70      0  01:46       0.008     0.000
  YS02001610              0.01     11.44      0  01:39       0.000     0.000
  YS02001616              0.01     57.82      0  01:39       0.000     0.000
  YS02001619              0.01     78.91      0  01:39       0.000     0.000
  YS02001622              0.01    131.78      0  01:39       0.000     0.000
  YS02001625              0.01     71.16      0  01:39       0.001     0.000
  YS02001629              0.01    247.62      0  01:39       0.001     0.000
  YSB1171                 0.01    115.64      0  01:38       0.001     0.000
  JK-storage              0.27    737.41      0  01:55       0.459     0.000
  
  
  **********************
  Storage Volume Summary
  **********************
  
  --------------------------------------------------------------------------------------------------
                         Average     Avg  Evap Exfil       Maximum     Max    Time of Max    Maximum
                          Volume    Pcnt  Pcnt  Pcnt        Volume    Pcnt     Occurrence    Outflow
  Storage Unit           1000 m3    Full  Loss  Loss       1000 m3    Full    days hr:min        LPS
  --------------------------------------------------------------------------------------------------
  CC-storage               2.876      45     0     0         4.433      69       0  02:20    1783.53
  JK-storage               0.111      38     0     0         0.291     100       0  01:54    2300.00
  XR-storage               0.962      67     0     0         1.111      77       0  08:00     380.00
  
  
  ***********************
  Outfall Loading Summary
  ***********************
  
  -----------------------------------------------------------
                         Flow       Avg       Max       Total
                         Freq      Flow      Flow      Volume
  Outfall Node           Pcnt       LPS       LPS    10^6 ltr
  -----------------------------------------------------------
  CC-1                  58.39    210.86    683.00       2.959
  CC-2                  59.57    117.33    683.00       1.551
  JK-1                  39.43     93.35   1000.00       1.107
  JK-2                  51.18     37.99   1000.00       0.561
  WSC                   99.97    560.33   1470.84      13.539
  -----------------------------------------------------------
  System                61.71   1019.86   1470.84      19.718
  
  
  ********************
  Link Flow Summary
  ********************
  
  -----------------------------------------------------------------------------
                                 Maximum  Time of Max   Maximum    Max/    Max/
                                  |Flow|   Occurrence   |Veloc|    Full    Full
  Link                 Type          LPS  days hr:min     m/sec    Flow   Depth
  -----------------------------------------------------------------------------
  1                    CONDUIT   1470.84     0  01:48      3.68    0.51    0.51
  HS02004478WS02006287 CONDUIT   2066.27     0  01:43      2.89    0.58    1.00
  HS02004479HS02004480 CONDUIT    385.91     0  01:38      0.55    0.37    1.00
  HS02004480HS02004478 CONDUIT   2174.41     0  01:38      3.11    9.16    1.00
  HS02004770HS02004777 CONDUIT    849.64     0  01:38      1.21    1.55    1.00
  HS02004777HS02004785 CONDUIT    850.24     0  01:38      1.37    1.05    1.00
  HS02004785HS02004788 CONDUIT    858.98     0  01:38      1.35    6.48    1.00
  HS02004788HS02004792 CONDUIT    824.34     0  01:38      1.43    0.55    1.00
  HS02004792HS02004799 CONDUIT   1636.01     0  01:39      2.34    1.00    1.00
  HS02004799HS02004480 CONDUIT   1787.19     0  01:39      2.55    2.26    1.00
  HS02004802HS02004478 CONDUIT    332.94     0  02:04      0.65    0.29    1.00
  HS02004807HS02004802 CONDUIT    320.64     0  02:04      0.58    0.61    1.00
  HS02004817HS02004807 CONDUIT    501.22     0  01:38      0.72    0.30    1.00
  HS02004817HS02004824 CONDUIT    499.91     0  01:38      0.71    0.23    1.00
  HS02004824HS02004830 CONDUIT    711.81     0  01:38      1.08    0.93    1.00
  HS02004830HS02004837 CONDUIT    804.53     0  01:39      1.28    0.80    1.00
  HS02004837HS02004842 CONDUIT    852.62     0  01:39      1.22    0.51    1.00
  HS02004842HS02004848 CONDUIT    852.85     0  01:39      1.35    0.50    1.00
  HS02004848HS02004852 CONDUIT   1031.32     0  01:40      1.68    1.16    1.00
  HS02004852HS02004856 CONDUIT    966.65     0  01:40      1.52    1.11    1.00
  HS02004856HS02004862 CONDUIT   1037.75     0  01:40      1.71    1.03    1.00
  HS02004862HS02004870 CONDUIT   1161.14     0  01:40      1.96    1.25    1.00
  HS02004870HS02004876 CONDUIT   1288.60     0  01:41      2.11    0.85    1.00
  HS02004876HS02004881 CONDUIT   1309.64     0  01:41      2.51   13.93    1.00
  HS02004881HS02006253 CONDUIT   1222.26     0  01:42      2.79    0.24    1.00
  HS02004901HS02004770 CONDUIT    217.96     0  01:43      0.31    0.82    1.00
  WS02001211WS02001212 CONDUIT    304.17     0  01:46      0.54    0.23    0.71
  WS02001212WS02001213 CONDUIT    327.47     0  01:46      1.04    0.51    0.60
  WS02001213WS02003059 CONDUIT    288.76     0  01:45      0.47    0.48    0.91
  WS02003059WS02003060 CONDUIT    364.02     0  01:40      0.67    0.24    0.81
  WS02003060WS02003069 CONDUIT   1474.34     0  01:48      2.21    0.58    0.60
  WS02003066WSF200     CONDUIT   1254.38     0  01:42      3.61    0.21    0.40
  WS02003067WS02003066 CONDUIT   1258.65     0  01:41      1.99    0.40    0.58
  WS02003069WS02003072 CONDUIT   1466.34     0  01:48      1.88    0.71    0.65
  WS02003072WS02003073 CONDUIT   1469.67     0  01:47      2.04    3.17    0.61
  WS02004138WS02004139 CONDUIT    190.96     0  00:29      2.15    0.04    0.43
  WS02004139WS02001211 CONDUIT    348.67     0  01:43      0.54    0.44    0.62
  WS02004401WS02004402 CONDUIT   1281.29     0  01:39      1.63    1.54    1.00
  WS02004402WS02004403 CONDUIT   1282.56     0  01:39      1.63    1.84    1.00
  WS02004403WS02004404 CONDUIT   1283.05     0  01:39      1.63    0.93    1.00
  WS02004404WS02004405 CONDUIT   1284.72     0  01:39      1.64   12.59    1.00
  WS02004405WS02004406 CONDUIT   1287.30     0  01:39      1.64    2.54    1.00
  WS02004406WS02004407 CONDUIT   1288.11     0  01:39      2.06    0.58    0.92
  WS02004407WS02004409 CONDUIT   1332.56     0  01:38      2.22    0.47    0.92
  WS02004409WS02004410 CONDUIT   1299.17     0  01:38      1.73    1.68    1.00
  WS02004410WS02004411 CONDUIT   1257.74     0  01:38      1.69    1.72    1.00
  WS02004411WS02004412 CONDUIT   1245.78     0  01:42      1.64    1.77    1.00
  WS02004412WS02004413 CONDUIT   1246.01     0  01:42      1.59    0.83    1.00
  WS02004413WS02003067 CONDUIT   1245.95     0  01:42      1.95    0.53    0.76
  WS02006109WS02006110 CONDUIT   1210.64     0  01:37      2.41    2.33    1.00
  WS02006110WS02006113 CONDUIT   1210.50     0  01:37      2.41    1.10    1.00
  WS02006111WS02006112 CONDUIT   1133.91     0  01:39      2.26    0.54    1.00
  WS02006112WS02006115 CONDUIT   1279.39     0  01:39      1.63    0.76    1.00
  WS02006113WS02006111 CONDUIT   1245.72     0  01:37      2.71    1.49    1.00
  WS02006115WS02006116 CONDUIT   1279.92     0  01:39      1.63    1.64    1.00
  WS02006116WS02004401 CONDUIT   1280.40     0  01:39      1.63    1.76    1.00
  WS02006228WS02006109 CONDUIT   1210.24     0  01:37      2.41    5.29    1.00
  WS02006229WS02006228 CONDUIT   1210.65     0  01:37      2.41    4.01    1.00
  WS02006230WS02006229 CONDUIT    900.05     0  01:42      2.34   20.03    1.00
  WS02006231WS02006230 CONDUIT    453.54     0  01:45      1.30    6.88    1.00
  WS02006232WS02006231 CONDUIT    453.60     0  01:43      1.18    0.95    1.00
  WS02006234WS02006232 CONDUIT    453.34     0  01:45      1.41    0.92    1.00
  WS02006235WS02006234 CONDUIT    417.96     0  01:45      1.23    4.41    1.00
  WS02006238WS02006235 CONDUIT    415.75     0  01:41      1.45    0.93    1.00
  WS02006239WS02006238 CONDUIT    415.39     0  01:41      1.12    1.33    1.00
  WS02006240WS02006239 CONDUIT    415.02     0  01:42      1.26    1.31    1.00
  WS02006242WS02006240 CONDUIT    415.13     0  01:41      1.14    1.65    1.00
  WS02006243WS02006242 CONDUIT    375.13     0  01:36      1.35    0.80    1.00
  WS02006245WS02006243 CONDUIT    384.17     0  03:33      1.39    1.14    1.00
  WS02006247WS02006245 CONDUIT    398.73     0  03:33      1.37    3.16    1.00
  WS02006248WS02006247 CONDUIT    401.85     0  03:33      1.40    0.87    1.00
  WS02006249WS02006248 CONDUIT    411.32     0  03:32      1.40    2.25    1.00
  WS02006251WS02006249 CONDUIT   1288.01     0  01:44      3.35    3.71    1.00
  WS02006252WS02006251 CONDUIT    412.30     0  02:35      4.96    1.51    1.00
  WS02006253WS02006251 CONDUIT   1241.65     0  01:42      3.23    3.72    1.00
  WS02006256WS02006235 CONDUIT    288.93     0  00:00      4.23    3.06    1.00
  WS02006280WS02006229 CONDUIT   2069.06     0  01:43      4.90    0.44    1.00
  WS02006284WS02006280 CONDUIT   2068.15     0  01:43      3.20    0.87    1.00
  WS02006287WS02006284 CONDUIT   2067.24     0  01:43      3.00    0.96    1.00
  WSF200WS02003060     CONDUIT   1427.43     0  01:40      2.99    0.32    0.50
  YS02001580YS02001583 CONDUIT    137.29     0  01:38      0.84    0.53    1.00
  YS02001583YS02001586 CONDUIT    177.24     0  01:39      0.83    0.27    1.00
  YS02001586YS02001590 CONDUIT    292.35     0  01:44      1.32    0.51    1.00
  YS02001590YS02001593 CONDUIT    292.20     0  01:43      1.04    1.83    1.00
  YS02001593YS02001596 CONDUIT    292.06     0  01:43      1.71    0.46    1.00
  YS02001596YS02001600 CONDUIT    292.30     0  01:44      1.18    0.57    1.00
  YS02001600YS02001601 CONDUIT    292.82     0  01:44      1.04    0.50    1.00
  YS02001601YS02001602 CONDUIT    583.48     0  01:38      2.06    2.11    1.00
  YS02001602YS02001605 CONDUIT    583.59     0  01:38      2.06   12.35    1.00
  YS02001605YS02001607 CONDUIT    583.65     0  01:39      2.06    3.20    1.00
  YS02001607YS02001610 CONDUIT    560.60     0  01:38      0.76    0.53    1.00
  YS02001610YS02001613 CONDUIT    522.94     0  01:38      0.71    0.60    1.00
  YS02001613YS02001616 CONDUIT    493.65     0  01:39      0.71    0.42    1.00
  YS02001616YS02001619 CONDUIT    487.09     0  01:39      0.68    0.85    1.00
  YS02001619YS02001622 CONDUIT    942.52     0  01:39      1.38    1.39    1.00
  YS02001622YS02001625 CONDUIT    938.60     0  01:39      1.20    0.50    1.00
  YS02001625YS02001629 CONDUIT    940.62     0  01:39      1.21    0.45    1.00
  YS02001629YS02163301 CONDUIT    910.06     0  01:41      1.16    1.12    1.00
  YS02001633YS02163601 CONDUIT   1315.99     0  01:41      1.68    1.38    1.00
  YS02001641YS02001644 CONDUIT   1317.86     0  01:41      1.68    4.26    1.00
  YS02001644YS02001647 CONDUIT   1666.84     0  01:41      2.22    0.98    1.00
  YS02001647YS02001649 CONDUIT   1685.50     0  01:40      2.34    0.89    1.00
  YS02001649YS02001757 CONDUIT   2026.37     0  01:41      2.62    1.23    1.00
  YS02001652YS02001649 CONDUIT    424.69     0  01:41      0.92    0.21    1.00
  YS02001655YS02001652 CONDUIT    448.15     0  01:41      1.74    0.22    0.90
  YS02001658YS02001655 CONDUIT    362.73     0  01:40      2.02    0.15    0.62
  YS02001661YS02001658 CONDUIT    345.96     0  01:40      2.19    0.14    0.35
  YS02001664YS02001661 CONDUIT    346.21     0  01:40      2.01    0.11    0.27
  YS02001745YS02001748 CONDUIT    226.81     0  01:39      2.03    0.09    0.25
  YS02001748YS02001751 CONDUIT    227.65     0  01:39      1.70    0.11    0.50
  YS02001751YS02001754 CONDUIT    248.54     0  01:47      1.68    0.12    0.72
  YS02001754YS02001757 CONDUIT    258.85     0  01:42      0.68    0.10    0.96
  YS02001757CaochengTiaoxuchi CONDUIT   2547.71     0  01:42      3.41    1.10    1.00
  YS02001759YS02001757 CONDUIT    616.77     0  01:42      1.15    0.44    1.00
  YS02001762YS02001759 CONDUIT    372.23     0  01:42      0.56    0.43    1.00
  YS02001765YS02001762 CONDUIT    396.12     0  01:43      0.74    0.37    1.00
  YS02001767YS02001765 CONDUIT    431.19     0  01:43      0.91    0.54    1.00
  YS02001770YS02001767 CONDUIT    418.14     0  01:43      0.95    1.66    1.00
  YS02001774YS02001770 CONDUIT    118.49     0  01:40      0.21    0.08    0.99
  YS02001779YS02001774 CONDUIT     76.39     0  01:43      0.13    0.04    0.92
  YS02001783YS02001784 CONDUIT   1076.28     0  01:44      2.14    1.48    1.00
  YS02001784YS02001785 CONDUIT   1076.87     0  01:44      2.15    2.51    1.00
  YS02001786YS02001788 CONDUIT   1074.19     0  01:45      2.35    2.07    1.00
  YS02001788YS02001790 CONDUIT   1079.27     0  01:45      2.61    0.80    1.00
  YS02001790YS02001791 CONDUIT   1176.64     0  01:46      3.33    1.28    1.00
  YS02001791YS02001793 CONDUIT   1117.58     0  01:46      6.49    0.48    1.00
  YS02001793JiankangQianchi CONDUIT   1112.99     0  01:46      2.25    0.09    1.00
  YS02001882YS02001884 CONDUIT     47.88     0  01:40      0.14    0.05    1.00
  YS02001884YS02001887 CONDUIT     87.05     0  01:40      0.14    0.12    1.00
  YS02001887YS02001890 CONDUIT    337.90     0  01:41      0.44    0.58    1.00
  YS02001890YS02001895 CONDUIT    341.40     0  01:41      0.44    0.16    1.00
  YS02001895YS02001898 CONDUIT    345.40     0  01:41      0.47    0.60    1.00
  YS02001898YS02001901 CONDUIT    351.63     0  01:41      0.45    0.23    1.00
  YS02001901YS02001904 CONDUIT    353.20     0  01:41      0.45    0.55    1.00
  YS02001904YS02001907 CONDUIT    357.20     0  01:41      0.45    0.13    1.00
  YS02001907YS02006553 CONDUIT    757.91     0  01:48      0.84    0.89    1.00
  YS02001910YS02001907 CONDUIT    559.78     0  01:48      0.71    0.32    1.00
  YS02001915YS02001910 CONDUIT    559.75     0  01:48      0.71    0.28    1.00
  YS02001918YS02001915 CONDUIT    299.22     0  01:49      0.44    0.17    0.99
  YS02001920YS02001918 CONDUIT    288.62     0  01:47      0.71    0.28    0.99
  YS02001923YS02001920 CONDUIT    264.57     0  01:47      0.87    0.12    0.91
  YS02001926YS02001923 CONDUIT    248.47     0  01:47      0.95    0.35    0.59
  YS02001929YS02001926 CONDUIT    221.99     0  01:45      1.06    0.11    0.48
  YS02006553YS02006556 CONDUIT    757.58     0  01:48      0.96    0.65    1.00
  YS02006556YS02006558 CONDUIT    758.54     0  01:48      0.97    0.60    1.00
  YS02006558YS02006561 CONDUIT   1087.83     0  01:43      3.85    2.40    1.00
  YS02006561YS02001783 CONDUIT   1076.33     0  01:44      2.27    0.56    0.93
  YS02163301YS02001633 CONDUIT    909.97     0  01:41      1.16    0.86    1.00
  YS02163601YS02164001 CONDUIT   1317.29     0  01:41      1.68    1.17    1.00
  YS02164001YS02001641 CONDUIT   1317.82     0  01:41      1.68    1.80    1.00
  YSB1154YSB6556       CONDUIT    192.72     0  01:40      0.50    0.35    1.00
  YSB1171HS02004479    CONDUIT    377.24     0  01:38      0.75    0.25    1.00
  YSB1174YSB1171       CONDUIT    172.12     0  01:38      0.45    0.26    1.00
  YSB6556YSB1171       CONDUIT    196.03     0  01:38      0.51    0.20    1.00
  CC-R1                PUMP       683.00     0  00:00              1.00
  CC-R2                PUMP       683.00     0  00:00              1.00
  CC-S1                PUMP       200.00     0  00:00              1.00
  CC-S2                PUMP       200.00     0  00:00              1.00
  JK-R1                PUMP      1000.00     0  00:00              1.00
  JK-R2                PUMP      1000.00     0  00:00              1.00
  JK-S                 PUMP       300.00     0  00:00              1.00
  XR-1                 PUMP        95.00     0  00:00              1.00
  XR-2                 PUMP        95.00     0  00:00              1.00
  XR-3                 PUMP        95.00     0  00:00              1.00
  XR-4                 PUMP        95.00     0  00:00              1.00
  
  
  ***************************
  Flow Classification Summary
  ***************************
  
  -------------------------------------------------------------------------------------
                      Adjusted    ---------- Fraction of Time in Flow Class ---------- 
                       /Actual         Up    Down  Sub   Sup   Up    Down  Norm  Inlet 
  Conduit               Length    Dry  Dry   Dry   Crit  Crit  Crit  Crit  Ltd   Ctrl  
  -------------------------------------------------------------------------------------
  1                       1.00   0.00  0.00  0.00  0.00  1.00  0.00  0.00  0.45  0.00
  HS02004478WS02006287    1.00   0.07  0.00  0.00  0.69  0.23  0.00  0.00  0.62  0.00
  HS02004479HS02004480    1.00   0.02  0.00  0.00  0.98  0.00  0.00  0.00  0.12  0.00
  HS02004480HS02004478    1.00   0.06  0.00  0.00  0.66  0.00  0.00  0.29  0.00  0.00
  HS02004770HS02004777    1.00   0.00  0.06  0.00  0.94  0.00  0.00  0.00  0.03  0.00
  HS02004777HS02004785    1.00   0.00  0.00  0.00  1.00  0.00  0.00  0.00  0.12  0.00
  HS02004785HS02004788    1.00   0.00  0.00  0.00  1.00  0.00  0.00  0.00  0.00  0.00
  HS02004788HS02004792    1.00   0.00  0.00  0.00  1.00  0.00  0.00  0.00  0.93  0.00
  HS02004792HS02004799    1.00   0.00  0.00  0.00  0.99  0.01  0.00  0.00  0.90  0.00
  HS02004799HS02004480    1.00   0.00  0.02  0.00  0.93  0.00  0.05  0.00  0.00  0.00
  HS02004802HS02004478    1.00   0.06  0.00  0.00  0.94  0.00  0.00  0.00  0.03  0.00
  HS02004807HS02004802    1.00   0.06  0.00  0.00  0.94  0.00  0.00  0.01  0.00  0.00
  HS02004817HS02004807    1.00   0.00  0.06  0.00  0.94  0.00  0.00  0.00  0.01  0.00
  HS02004817HS02004824    1.00   0.00  0.00  0.00  1.00  0.00  0.00  0.00  0.86  0.00
  HS02004824HS02004830    1.00   0.00  0.00  0.00  1.00  0.00  0.00  0.00  0.01  0.00
  HS02004830HS02004837    1.00   0.00  0.00  0.00  1.00  0.00  0.00  0.00  0.92  0.00
  HS02004837HS02004842    1.00   0.00  0.00  0.00  1.00  0.00  0.00  0.00  0.11  0.00
  HS02004842HS02004848    1.00   0.00  0.06  0.00  0.94  0.00  0.00  0.00  0.60  0.00
  HS02004848HS02004852    1.00   0.06  0.00  0.00  0.94  0.00  0.00  0.00  0.74  0.00
  HS02004852HS02004856    1.00   0.06  0.00  0.00  0.94  0.00  0.00  0.00  0.73  0.00
  HS02004856HS02004862    1.00   0.00  0.08  0.00  0.92  0.00  0.00  0.00  0.77  0.00
  HS02004862HS02004870    1.00   0.00  0.00  0.00  1.00  0.00  0.00  0.00  0.03  0.00
  HS02004870HS02004876    1.00   0.00  0.00  0.00  0.99  0.00  0.00  0.00  0.89  0.00
  HS02004876HS02004881    1.00   0.01  0.00  0.00  0.78  0.21  0.00  0.00  0.00  0.00
  HS02004881HS02006253    1.00   0.02  0.01  0.00  0.67  0.02  0.00  0.29  0.36  0.00
  HS02004901HS02004770    1.00   0.06  0.00  0.00  0.94  0.00  0.00  0.00  0.00  0.00
  WS02001211WS02001212    1.00   0.00  0.01  0.00  0.99  0.00  0.00  0.00  0.00  0.00
  WS02001212WS02001213    1.00   0.01  0.00  0.00  0.44  0.00  0.54  0.00  0.00  0.00
  WS02001213WS02003059    1.00   0.00  0.00  0.00  1.00  0.00  0.00  0.00  0.00  0.00
  WS02003059WS02003060    1.00   0.00  0.00  0.00  1.00  0.00  0.00  0.00  0.03  0.00
  WS02003060WS02003069    1.00   0.00  0.00  0.00  0.99  0.01  0.00  0.00  0.41  0.00
  WS02003066WSF200        1.00   0.05  0.00  0.00  0.00  0.95  0.00  0.00  0.66  0.00
  WS02003067WS02003066    1.00   0.04  0.01  0.00  0.95  0.00  0.00  0.00  0.00  0.00
  WS02003069WS02003072    1.00   0.00  0.00  0.00  1.00  0.00  0.00  0.00  0.53  0.00
  WS02003072WS02003073    1.00   0.00  0.00  0.00  0.00  0.00  0.00  1.00  0.00  0.00
  WS02004138WS02004139    1.00   0.00  0.00  0.00  0.98  0.00  0.00  0.01  0.98  0.00
  WS02004139WS02001211    1.00   0.00  0.00  0.00  1.00  0.00  0.00  0.00  0.00  0.00
  WS02004401WS02004402    1.00   0.01  0.00  0.00  0.99  0.00  0.00  0.00  0.00  0.00
  WS02004402WS02004403    1.00   0.02  0.00  0.00  0.98  0.00  0.00  0.00  0.00  0.00
  WS02004403WS02004404    1.00   0.00  0.02  0.00  0.98  0.00  0.00  0.00  0.00  0.00
  WS02004404WS02004405    1.00   0.00  0.00  0.00  1.00  0.00  0.00  0.00  0.00  0.00
  WS02004405WS02004406    1.00   0.00  0.00  0.00  1.00  0.00  0.00  0.00  0.00  0.00
  WS02004406WS02004407    1.00   0.00  0.03  0.00  0.97  0.00  0.00  0.00  0.00  0.00
  WS02004407WS02004409    1.00   0.03  0.00  0.00  0.97  0.00  0.00  0.00  0.86  0.00
  WS02004409WS02004410    1.00   0.03  0.00  0.00  0.97  0.00  0.00  0.00  0.02  0.00
  WS02004410WS02004411    1.00   0.03  0.00  0.00  0.97  0.00  0.00  0.00  0.01  0.00
  WS02004411WS02004412    1.00   0.03  0.00  0.00  0.97  0.00  0.00  0.00  0.00  0.00
  WS02004412WS02004413    1.00   0.03  0.00  0.00  0.97  0.00  0.00  0.00  0.01  0.00
  WS02004413WS02003067    1.00   0.03  0.01  0.00  0.00  0.00  0.96  0.00  0.00  0.00
  WS02006109WS02006110    1.00   0.00  0.00  0.00  0.99  0.00  0.01  0.00  0.00  0.00
  WS02006110WS02006113    1.00   0.00  0.01  0.00  0.99  0.00  0.00  0.00  0.00  0.00
  WS02006111WS02006112    1.00   0.01  0.00  0.00  0.99  0.00  0.00  0.00  0.79  0.00
  WS02006112WS02006115    1.00   0.01  0.00  0.00  0.98  0.00  0.00  0.00  0.00  0.00
  WS02006113WS02006111    1.00   0.01  0.00  0.00  0.18  0.81  0.00  0.00  0.13  0.00
  WS02006115WS02006116    1.00   0.01  0.00  0.00  0.98  0.00  0.00  0.00  0.00  0.00
  WS02006116WS02004401    1.00   0.01  0.00  0.00  0.99  0.00  0.00  0.00  0.00  0.00
  WS02006228WS02006109    1.00   0.00  0.00  0.00  1.00  0.00  0.00  0.00  0.00  0.00
  WS02006229WS02006228    1.00   0.00  0.00  0.00  1.00  0.00  0.00  0.00  0.00  0.00
  WS02006230WS02006229    1.00   0.00  0.00  0.00  0.99  0.00  0.00  0.01  0.00  0.00
  WS02006231WS02006230    1.00   0.00  0.00  0.00  0.32  0.00  0.68  0.00  0.00  0.00
  WS02006232WS02006231    1.00   0.00  0.00  0.00  1.00  0.00  0.00  0.00  0.00  0.00
  WS02006234WS02006232    1.00   0.00  0.00  0.00  1.00  0.00  0.00  0.00  0.02  0.00
  WS02006235WS02006234    1.00   0.00  0.00  0.00  0.88  0.00  0.12  0.00  0.00  0.00
  WS02006238WS02006235    1.00   0.00  0.00  0.00  1.00  0.00  0.00  0.00  0.00  0.00
  WS02006239WS02006238    1.00   0.00  0.00  0.00  1.00  0.00  0.00  0.00  0.04  0.00
  WS02006240WS02006239    1.00   0.00  0.00  0.00  0.81  0.00  0.00  0.18  0.00  0.00
  WS02006242WS02006240    1.00   0.00  0.00  0.00  1.00  0.00  0.00  0.00  0.00  0.00
  WS02006243WS02006242    1.00   0.00  0.00  0.00  1.00  0.00  0.00  0.00  0.49  0.00
  WS02006245WS02006243    1.00   0.00  0.00  0.00  0.84  0.00  0.00  0.16  0.01  0.00
  WS02006247WS02006245    1.00   0.00  0.00  0.00  0.98  0.00  0.00  0.02  0.00  0.00
  WS02006248WS02006247    1.00   0.00  0.00  0.00  1.00  0.00  0.00  0.00  0.51  0.00
  WS02006249WS02006248    1.00   0.00  0.00  0.00  0.75  0.00  0.25  0.00  0.00  0.00
  WS02006251WS02006249    1.00   0.00  0.00  0.00  1.00  0.00  0.00  0.00  0.50  0.00
  WS02006252WS02006251    1.00   0.00  0.00  0.00  0.16  0.01  0.83  0.00  0.00  0.00
  WS02006253WS02006251    1.00   0.00  0.00  0.00  1.00  0.00  0.00  0.00  0.01  0.00
  WS02006256WS02006235    1.00   0.00  0.00  0.00  1.00  0.00  0.00  0.00  0.00  0.00
  WS02006280WS02006229    1.00   0.06  0.00  0.00  0.11  0.04  0.00  0.79  0.01  0.00
  WS02006284WS02006280    1.00   0.06  0.00  0.00  0.07  0.01  0.00  0.86  0.00  0.00
  WS02006287WS02006284    1.00   0.04  0.03  0.00  0.60  0.32  0.00  0.00  0.66  0.00
  WSF200WS02003060        1.00   0.00  0.05  0.00  0.68  0.27  0.00  0.00  0.58  0.00
  YS02001580YS02001583    1.00   0.11  0.72  0.00  0.18  0.00  0.00  0.00  0.74  0.00
  YS02001583YS02001586    1.00   0.32  0.41  0.00  0.27  0.00  0.00  0.00  0.74  0.00
  YS02001586YS02001590    1.00   0.06  0.00  0.00  0.44  0.07  0.00  0.43  0.32  0.00
  YS02001590YS02001593    1.00   0.06  0.00  0.00  0.08  0.00  0.87  0.00  0.00  0.00
  YS02001593YS02001596    1.00   0.06  0.00  0.00  0.09  0.01  0.00  0.84  0.02  0.00
  YS02001596YS02001600    1.00   0.06  0.00  0.00  0.16  0.04  0.00  0.74  0.06  0.00
  YS02001600YS02001601    1.00   0.06  0.00  0.00  0.94  0.00  0.00  0.00  0.64  0.00
  YS02001601YS02001602    1.00   0.06  0.00  0.00  0.94  0.00  0.00  0.00  0.00  0.00
  YS02001602YS02001605    1.00   0.06  0.00  0.00  0.94  0.00  0.00  0.00  0.00  0.00
  YS02001605YS02001607    1.00   0.06  0.00  0.00  0.94  0.00  0.00  0.00  0.00  0.00
  YS02001607YS02001610    1.00   0.06  0.00  0.00  0.94  0.00  0.00  0.00  0.02  0.00
  YS02001610YS02001613    1.00   0.06  0.00  0.00  0.94  0.00  0.00  0.00  0.01  0.00
  YS02001613YS02001616    1.00   0.06  0.00  0.00  0.94  0.00  0.00  0.00  0.01  0.00
  YS02001616YS02001619    1.00   0.06  0.00  0.00  0.94  0.00  0.00  0.00  0.00  0.00
  YS02001619YS02001622    1.00   0.06  0.00  0.00  0.94  0.00  0.00  0.00  0.37  0.00
  YS02001622YS02001625    1.00   0.06  0.00  0.00  0.94  0.00  0.00  0.00  0.05  0.00
  YS02001625YS02001629    1.00   0.06  0.03  0.00  0.12  0.00  0.79  0.00  0.00  0.00
  YS02001629YS02163301    1.00   0.07  0.01  0.00  0.92  0.00  0.00  0.00  0.00  0.00
  YS02001633YS02163601    1.00   0.00  0.00  0.00  1.00  0.00  0.00  0.00  0.15  0.00
  YS02001641YS02001644    1.00   0.00  0.00  0.00  1.00  0.00  0.00  0.00  0.00  0.00
  YS02001644YS02001647    1.00   0.00  0.08  0.00  0.92  0.00  0.00  0.00  0.00  0.00
  YS02001647YS02001649    1.00   0.00  0.08  0.00  0.92  0.00  0.00  0.00  0.61  0.00
  YS02001649YS02001757    1.00   0.00  0.00  0.00  1.00  0.00  0.00  0.00  0.53  0.00
  YS02001652YS02001649    1.00   0.00  0.00  0.00  0.98  0.02  0.00  0.00  0.67  0.00
  YS02001655YS02001652    1.00   0.00  0.00  0.00  0.32  0.00  0.00  0.67  0.12  0.00
  YS02001658YS02001655    1.00   0.00  0.06  0.00  0.73  0.21  0.00  0.00  0.76  0.00
  YS02001661YS02001658    1.00   0.06  0.00  0.00  0.45  0.49  0.00  0.00  0.79  0.00
  YS02001664YS02001661    1.00   0.06  0.00  0.00  0.83  0.12  0.00  0.00  0.87  0.00
  YS02001745YS02001748    1.00   0.00  0.00  0.00  0.03  0.02  0.00  0.95  0.04  0.00
  YS02001748YS02001751    1.00   0.00  0.00  0.00  0.83  0.17  0.00  0.00  0.84  0.00
  YS02001751YS02001754    1.00   0.00  0.00  0.00  0.32  0.00  0.00  0.68  0.12  0.00
  YS02001754YS02001757    1.00   0.00  0.00  0.00  1.00  0.00  0.00  0.00  0.73  0.00
  YS02001757CaochengTiaoxuchi    1.00   0.00  0.00  0.00  0.99  0.01  0.00  0.00  0.42  0.00
  YS02001759YS02001757    1.00   0.00  0.00  0.00  1.00  0.00  0.00  0.00  0.43  0.00
  YS02001762YS02001759    1.00   0.00  0.00  0.00  1.00  0.00  0.00  0.00  0.06  0.00
  YS02001765YS02001762    1.00   0.00  0.00  0.00  1.00  0.00  0.00  0.00  0.59  0.00
  YS02001767YS02001765    1.00   0.00  0.00  0.00  1.00  0.00  0.00  0.00  0.04  0.00
  YS02001770YS02001767    1.00   0.00  0.00  0.00  1.00  0.00  0.00  0.00  0.00  0.00
  YS02001774YS02001770    1.00   0.00  0.06  0.00  0.82  0.00  0.12  0.00  0.03  0.00
  YS02001779YS02001774    1.00   0.00  0.00  0.00  1.00  0.00  0.00  0.00  0.72  0.00
  YS02001783YS02001784    1.00   0.00  0.08  0.00  0.92  0.00  0.00  0.00  0.59  0.00
  YS02001784YS02001785    1.00   0.00  0.00  0.00  1.00  0.00  0.00  0.00  0.17  0.00
  YS02001786YS02001788    1.00   0.00  0.00  0.00  0.78  0.22  0.00  0.00  0.00  0.00
  YS02001788YS02001790    1.00   0.00  0.00  0.00  0.14  0.86  0.00  0.00  0.88  0.00
  YS02001790YS02001791    1.00   0.00  0.00  0.00  0.05  0.95  0.00  0.00  0.14  0.00
  YS02001791YS02001793    1.00   0.00  0.00  0.00  0.06  0.94  0.00  0.00  0.02  0.00
  YS02001793JiankangQianchi    1.00   0.00  0.00  0.00  1.00  0.00  0.00  0.00  0.92  0.00
  YS02001882YS02001884    1.00   0.07  0.01  0.00  0.93  0.00  0.00  0.00  0.00  0.00
  YS02001884YS02001887    1.00   0.03  0.02  0.00  0.95  0.00  0.00  0.00  0.00  0.00
  YS02001887YS02001890    1.00   0.00  0.00  0.00  0.98  0.00  0.02  0.00  0.00  0.00
  YS02001890YS02001895    1.00   0.00  0.07  0.00  0.92  0.00  0.00  0.00  0.00  0.00
  YS02001895YS02001898    1.00   0.08  0.00  0.00  0.91  0.00  0.01  0.00  0.00  0.00
  YS02001898YS02001901    1.00   0.08  0.00  0.00  0.92  0.00  0.00  0.00  0.01  0.00
  YS02001901YS02001904    1.00   0.08  0.00  0.00  0.92  0.00  0.00  0.00  0.00  0.00
  YS02001904YS02001907    1.00   0.00  0.08  0.00  0.92  0.00  0.00  0.00  0.00  0.00
  YS02001907YS02006553    1.00   0.00  0.01  0.00  0.99  0.00  0.00  0.00  0.00  0.00
  YS02001910YS02001907    1.00   0.00  0.00  0.00  0.98  0.00  0.00  0.01  0.12  0.00
  YS02001915YS02001910    1.00   0.00  0.00  0.00  0.98  0.02  0.00  0.00  0.16  0.00
  YS02001918YS02001915    1.00   0.00  0.00  0.00  0.99  0.01  0.00  0.00  0.80  0.00
  YS02001920YS02001918    1.00   0.00  0.00  0.00  1.00  0.00  0.00  0.00  0.00  0.00
  YS02001923YS02001920    1.00   0.00  0.00  0.00  1.00  0.00  0.00  0.00  0.96  0.00
  YS02001926YS02001923    1.00   0.00  0.04  0.00  0.02  0.00  0.94  0.00  0.00  0.00
  YS02001929YS02001926    1.00   0.00  0.06  0.00  0.94  0.00  0.00  0.00  0.86  0.00
  YS02006553YS02006556    1.00   0.01  0.00  0.00  0.99  0.00  0.00  0.00  0.03  0.00
  YS02006556YS02006558    1.00   0.00  0.00  0.00  1.00  0.00  0.00  0.00  0.00  0.00
  YS02006558YS02006561    1.00   0.08  0.00  0.00  0.02  0.89  0.00  0.00  0.19  0.00
  YS02006561YS02001783    1.00   0.08  0.00  0.00  0.08  0.84  0.00  0.00  0.75  0.00
  YS02163301YS02001633    1.00   0.00  0.07  0.00  0.93  0.00  0.00  0.00  0.00  0.00
  YS02163601YS02164001    1.00   0.00  0.04  0.00  0.96  0.00  0.00  0.00  0.00  0.00
  YS02164001YS02001641    1.00   0.00  0.03  0.00  0.96  0.00  0.00  0.00  0.06  0.00
  YSB1154YSB6556          1.00   0.06  0.00  0.00  0.94  0.00  0.00  0.00  0.02  0.00
  YSB1171HS02004479       1.00   0.02  0.00  0.00  0.97  0.00  0.00  0.01  0.10  0.00
  YSB1174YSB1171          1.00   0.03  0.01  0.00  0.96  0.00  0.00  0.00  0.00  0.00
  YSB6556YSB1171          1.00   0.02  0.03  0.00  0.94  0.00  0.00  0.00  0.00  0.00
  
  
  *************************
  Conduit Surcharge Summary
  *************************
  
  ----------------------------------------------------------------------------
                                                           Hours        Hours 
                         --------- Hours Full --------   Above Full   Capacity
  Conduit                Both Ends  Upstream  Dnstream   Normal Flow   Limited
  ----------------------------------------------------------------------------
  HS02004478WS02006287        0.22      0.22      0.37      0.01         0.01
  HS02004479HS02004480        0.39      0.39      0.40      0.01         0.01
  HS02004480HS02004478        0.31      0.39      0.31      1.48         0.31
  HS02004770HS02004777        0.31      0.31      0.31      0.12         0.09
  HS02004777HS02004785        0.26      0.26      0.31      0.01         0.01
  HS02004785HS02004788        0.24      0.26      0.24      1.06         0.24
  HS02004788HS02004792        0.24      0.24      0.36      0.01         0.01
  HS02004792HS02004799        0.36      0.36      0.45      0.01         0.01
  HS02004799HS02004480        0.39      0.39      0.45      0.54         0.01
  HS02004802HS02004478        0.32      0.32      0.39      0.01         0.01
  HS02004807HS02004802        0.36      0.36      0.38      0.01         0.01
  HS02004817HS02004807        0.36      0.36      0.85      0.01         0.01
  HS02004817HS02004824        0.24      0.24      0.85      0.01         0.01
  HS02004824HS02004830        0.20      0.20      0.24      0.01         0.01
  HS02004830HS02004837        0.16      0.16      0.20      0.01         0.01
  HS02004837HS02004842        0.16      0.16      0.29      0.01         0.01
  HS02004842HS02004848        0.09      0.09      0.29      0.01         0.01
  HS02004848HS02004852        0.09      0.09      0.12      0.04         0.01
  HS02004852HS02004856        0.12      0.12      0.15      0.04         0.01
  HS02004856HS02004862        0.11      0.11      0.15      0.02         0.01
  HS02004862HS02004870        0.15      0.15      0.17      0.03         0.01
  HS02004870HS02004876        0.17      0.17      0.23      0.01         0.01
  HS02004876HS02004881        0.21      0.23      0.21      1.07         0.21
  HS02004881HS02006253        0.21      0.21      1.00      0.01         0.01
  HS02004901HS02004770        0.31      0.31      0.32      0.01         0.01
  WS02003072WS02003073        0.01      0.01      0.01      2.37         0.01
  WS02004401WS02004402        1.26      1.26      1.29      1.05         1.02
  WS02004402WS02004403        1.29      1.29      1.30      1.25         1.24
  WS02004403WS02004404        1.30      1.30      1.50      0.01         0.01
  WS02004404WS02004405        1.49      1.50      1.49      4.32         1.49
  WS02004405WS02004406        1.46      1.49      1.46      1.58         1.46
  WS02004406WS02004407        0.01      0.01      1.46      0.01         0.01
  WS02004407WS02004409        0.01      0.01      0.58      0.01         0.01
  WS02004409WS02004410        0.55      0.58      0.55      1.14         0.54
  WS02004410WS02004411        0.52      0.55      0.52      1.21         0.52
  WS02004411WS02004412        0.43      0.52      0.43      1.25         0.43
  WS02004412WS02004413        0.43      0.43      0.97      0.01         0.01
  WS02004413WS02003067        0.01      0.01      0.97      0.01         0.01
  WS02006109WS02006110        1.56      1.56      1.69      1.56         0.01
  WS02006110WS02006113        0.90      0.90      1.68      0.27         0.01
  WS02006111WS02006112        0.86      0.86      1.93      0.01         0.01
  WS02006112WS02006115        1.15      1.15      1.60      0.01         0.01
  WS02006113WS02006111        0.89      0.90      0.89      1.00         0.88
  WS02006115WS02006116        1.17      1.17      1.17      1.14         1.11
  WS02006116WS02004401        1.25      1.25      1.26      1.23         1.21
  WS02006228WS02006109        1.67      1.69      1.67      2.75         1.67
  WS02006229WS02006228        1.66      1.67      1.66      1.95         1.66
  WS02006230WS02006229        1.70      1.80      1.70      4.44         1.02
  WS02006231WS02006230        1.44      1.44      1.50      4.00         0.62
  WS02006232WS02006231        1.48      1.48      1.56      0.01         0.09
  WS02006234WS02006232        1.51      1.51      1.56      0.01         0.01
  WS02006235WS02006234        1.48      1.49      1.51      3.52         0.61
  WS02006238WS02006235        1.52      1.52      1.53      0.01         0.18
  WS02006239WS02006238        1.50      1.50      1.52      0.62         0.03
  WS02006240WS02006239        1.42      1.43      1.45      0.61         0.03
  WS02006242WS02006240        1.41      1.41      1.46      1.16         0.55
  WS02006243WS02006242        1.38      1.38      1.42      0.01         0.01
  WS02006245WS02006243        1.34      1.34      1.37      0.13         0.03
  WS02006247WS02006245        1.32      1.34      1.32      3.08         0.61
  WS02006248WS02006247        1.28      1.28      1.33      0.01         0.01
  WS02006249WS02006248        1.27      1.28      1.28      2.16         0.01
  WS02006251WS02006249        1.26      1.26      1.28      0.89         0.74
  WS02006252WS02006251        1.18      1.18      1.35      0.42         0.01
  WS02006253WS02006251        1.26      1.26      1.28      0.48         0.04
  WS02006256WS02006235        3.83      3.83      7.84      0.21         0.01
  WS02006280WS02006229        0.46      0.46      0.56      0.01         0.01
  WS02006284WS02006280        0.39      0.39      0.45      0.01         0.01
  WS02006287WS02006284        0.31      0.31      0.40      0.01         0.01
  YS02001580YS02001583        0.21      0.21      0.27      0.01         0.01
  YS02001583YS02001586        0.22      0.22      0.38      0.01         0.01
  YS02001586YS02001590        0.39      0.39      0.45      0.01         0.01
  YS02001590YS02001593        0.45      0.45      0.46      0.49         0.01
  YS02001593YS02001596        0.46      0.46      0.53      0.01         0.01
  YS02001596YS02001600        0.57      0.57      0.65      0.01         0.01
  YS02001600YS02001601        0.70      0.70      0.99      0.01         0.01
  YS02001601YS02001602        0.88      0.88      1.03      0.66         0.01
  YS02001602YS02001605        0.82      0.82      0.88      1.86         0.01
  YS02001605YS02001607        0.79      0.82      0.79      0.93         0.79
  YS02001607YS02001610        0.41      0.41      0.43      0.01         0.01
  YS02001610YS02001613        0.40      0.40      0.43      0.01         0.01
  YS02001613YS02001616        0.36      0.36      0.40      0.01         0.01
  YS02001616YS02001619        0.35      0.35      0.36      0.01         0.01
  YS02001619YS02001622        0.35      0.35      0.35      0.47         0.34
  YS02001622YS02001625        0.35      0.35      0.51      0.01         0.01
  YS02001625YS02001629        0.29      0.29      0.51      0.01         0.01
  YS02001629YS02163301        0.50      0.50      0.51      0.29         0.23
  YS02001633YS02163601        0.52      0.52      0.55      0.36         0.36
  YS02001641YS02001644        0.43      0.47      0.43      1.08         0.43
  YS02001644YS02001647        0.17      0.17      0.43      0.01         0.01
  YS02001647YS02001649        0.18      0.18      0.32      0.01         0.01
  YS02001649YS02001757        0.31      0.32      0.36      0.16         0.10
  YS02001652YS02001649        0.04      0.04      0.32      0.01         0.01
  YS02001655YS02001652        0.01      0.01      0.01      0.01         0.01
  YS02001754YS02001757        0.01      0.01      0.36      0.01         0.01
  YS02001757CaochengTiaoxuchi        0.34      0.36      2.67      0.14         0.07
  YS02001759YS02001757        0.24      0.24      0.36      0.01         0.01
  YS02001762YS02001759        0.20      0.20      0.24      0.01         0.01
  YS02001765YS02001762        0.11      0.11      0.20      0.01         0.01
  YS02001767YS02001765        0.02      0.02      0.12      0.01         0.01
  YS02001770YS02001767        0.02      0.05      0.02      0.27         0.01
  YS02001774YS02001770        0.01      0.01      0.17      0.01         0.01
  YS02001779YS02001774        0.01      0.01      0.17      0.01         0.01
  YS02001783YS02001784        0.35      0.37      0.36      0.31         0.26
  YS02001784YS02001785        0.18      0.36      0.18      0.56         0.17
  YS02001786YS02001788        0.14      0.18      0.14      0.46         0.14
  YS02001788YS02001790        0.14      0.14      0.29      0.01         0.01
  YS02001790YS02001791        0.29      0.29      0.29      0.18         0.01
  YS02001791YS02001793        0.29      0.29      0.35      0.01         0.01
  YS02001793JiankangQianchi        0.33      0.33      7.69      0.01         0.01
  YS02001882YS02001884        0.17      0.17      0.19      0.01         0.01
  YS02001884YS02001887        0.21      0.21      0.22      0.01         0.01
  YS02001887YS02001890        0.24      0.24      0.25      0.01         0.01
  YS02001890YS02001895        0.16      0.16      0.28      0.01         0.01
  YS02001895YS02001898        0.14      0.14      0.16      0.01         0.01
  YS02001898YS02001901        0.16      0.16      0.21      0.01         0.01
  YS02001901YS02001904        0.20      0.20      0.21      0.01         0.01
  YS02001904YS02001907        0.20      0.20      0.44      0.01         0.01
  YS02001907YS02006553        0.55      0.55      0.59      0.01         0.01
  YS02001910YS02001907        0.27      0.27      0.43      0.01         0.01
  YS02001915YS02001910        0.17      0.17      0.27      0.01         0.01
  YS02001918YS02001915        0.01      0.01      0.17      0.01         0.01
  YS02001920YS02001918        0.01      0.01      0.05      0.01         0.01
  YS02001923YS02001920        0.01      0.01      0.05      0.01         0.01
  YS02006553YS02006556        0.36      0.36      0.44      0.01         0.01
  YS02006556YS02006558        0.40      0.40      0.45      0.01         0.01
  YS02006558YS02006561        0.09      0.36      0.09      0.51         0.09
  YS02006561YS02001783        0.01      0.01      0.37      0.01         0.01
  YS02163301YS02001633        0.51      0.51      0.54      0.01         0.01
  YS02163601YS02164001        0.47      0.47      0.55      0.17         0.01
  YS02164001YS02001641        0.47      0.47      0.47      0.56         0.47
  YSB1154YSB6556              0.43      0.43      0.56      0.01         0.01
  YSB1171HS02004479           0.34      0.34      0.56      0.01         0.01
  YSB1174YSB1171              0.48      0.48      0.78      0.01         0.01
  YSB6556YSB1171              0.43      0.43      0.93      0.01         0.01
  
  
  ***************
  Pumping Summary
  ***************
  
  ---------------------------------------------------------------------------------------------------------
                                                  Min       Avg       Max     Total     Power    % Time Off
                        Percent   Number of      Flow      Flow      Flow    Volume     Usage    Pump Curve
  Pump                 Utilized   Start-Ups       LPS       LPS       LPS  10^6 ltr     Kw-hr    Low   High
  ---------------------------------------------------------------------------------------------------------
  CC-R1                   60.42          18      0.00    210.86    683.00     2.959     55.13    0.0   53.1
  CC-R2                   66.67          20      0.00    117.33    683.00     1.551     28.82    0.0   65.9
  CC-S1                   69.79          12      0.00    105.24    200.00     1.406      7.97    0.0    0.0
  CC-S2                   68.94          17      0.00     58.17    200.00     1.001      5.85    0.0    0.0
  JK-R1                   33.79          24      0.00     93.35   1000.00     1.106     13.12    0.0    0.0
  JK-R2                   41.89          26      0.00     37.99   1000.00     0.560      6.17    0.0    0.0
  JK-S                    68.97          27      0.00     32.28    300.00     0.525      6.10    0.0    0.0
  XR-1                    97.91           2      0.00     95.00     95.00     2.679      9.60    0.0    0.0
  XR-2                    93.94           2      0.00     95.00     95.00     2.570      8.76    0.0    0.0
  XR-3                     0.00           1      0.00     95.00     95.00     0.000      0.00    0.0    0.0
  XR-4                     0.00           1      0.00     95.00     95.00     0.000      0.00    0.0    0.0
  

  Analysis begun on:  Mon Jul  3 13:25:38 2023
  Analysis ended on:  Mon Jul  3 13:25:57 2023
  Total elapsed time: 00:00:19