
  OWA STORM WATER MANAGEMENT MODEL - VERSION v5.1.14 (OWA 2022-07-31)
  --------------------------------------------------------------

  WARNING 04: minimum elevation drop used for Conduit WS02004404WS02004405
  WARNING 03: negative offset ignored for Link YS02001904YS02001907
  
  *********************************************************
  NOTE: The summary statistics displayed in this report are
  based on results found at every computational time step,  
  not just on results from each reporting time step.
  *********************************************************
  
  ****************
  Analysis Options
  ****************
  Flow Units ............... LPS
  Process Models:
    Rainfall/Runoff ........ YES
    RDII ................... NO
    Snowmelt ............... NO
    Groundwater ............ NO
    Flow Routing ........... YES
    Ponding Allowed ........ NO
    Water Quality .......... NO
  Infiltration Method ...... HORTON
  Flow Routing Method ...... DYNWAVE
  Surcharge Method ......... EXTRAN
  Starting Date ............ 08/28/2015 08:00:00
  Ending Date .............. 08/28/2015 16:00:00
  Antecedent Dry Days ...... 8.0
  Report Time Step ......... 00:01:00
  Wet Time Step ............ 00:01:00
  Dry Time Step ............ 00:01:00
  Routing Time Step ........ 30.00 sec
  Variable Time Step ....... YES
  Maximum Trials ........... 8
  Number of Threads ........ 4
  Head Tolerance ........... 0.001500 m
  
  
  **************************        Volume         Depth
  Runoff Quantity Continuity     hectare-m            mm
  **************************     ---------       -------
  Initial LID Storage ......         0.072         1.184
  Total Precipitation ......         0.683        11.277
  Evaporation Loss .........         0.000         0.000
  Infiltration Loss ........         0.131         2.157
  Surface Runoff ...........         0.388         6.412
  Final Storage ............         0.236         3.893
  Continuity Error (%) .....        -0.005
  
  
  **************************        Volume        Volume
  Flow Routing Continuity        hectare-m      10^6 ltr
  **************************     ---------     ---------
  Dry Weather Inflow .......         0.630         6.296
  Wet Weather Inflow .......         0.388         3.884
  Groundwater Inflow .......         0.000         0.000
  RDII Inflow ..............         0.000         0.000
  External Inflow ..........         0.105         1.045
  External Outflow .........         1.064        10.644
  Flooding Loss ............         0.002         0.017
  Evaporation Loss .........         0.000         0.000
  Exfiltration Loss ........         0.000         0.000
  Initial Stored Volume ....         0.303         3.031
  Final Stored Volume ......         0.362         3.618
  Continuity Error (%) .....        -0.153
  
  
  *************************
  Highest Continuity Errors
  *************************
  Node YS02001774 (26.52%)
  Node YS02001884 (21.16%)
  Node HS02004842 (17.16%)
  Node YSB1171 (4.07%)
  Node YS02001907 (3.74%)
  
  
  ***************************
  Time-Step Critical Elements
  ***************************
  Link WS02006252WS02006251 (99.20%)
  
  
  ********************************
  Highest Flow Instability Indexes
  ********************************
  Link WS02006113WS02006111 (27)
  Link WS02006111WS02006112 (10)
  Link WS02006256WS02006235 (8)
  Link WS02006110WS02006113 (1)
  Link WS02006238WS02006235 (1)
  
  
  *************************
  Routing Time Step Summary
  *************************
  Minimum Time Step           :     0.00 sec
  Average Time Step           :     1.41 sec
  Maximum Time Step           :     6.46 sec
  Percent in Steady State     :    -0.00
  Average Iterations per Step :     2.05
  Percent Not Converging      :     0.31
  
  
  ***************************
  Subcatchment Runoff Summary
  ***************************
  
  ------------------------------------------------------------------------------------------------------------------------------
                            Total      Total      Total      Total     Imperv       Perv      Total       Total     Peak  Runoff
                           Precip      Runon       Evap      Infil     Runoff     Runoff     Runoff      Runoff   Runoff   Coeff
  Subcatchment                 mm         mm         mm         mm         mm         mm         mm    10^6 ltr      LPS
  ------------------------------------------------------------------------------------------------------------------------------
  sub0                      11.28       0.00       0.00       0.79       9.22       0.00       9.22        0.01     1.44   0.818
  sub1                      11.28       0.00       0.00       1.11       7.88       0.00       7.88        0.05     9.12   0.699
  sub10                     11.28       0.00       0.00       0.73       7.39       0.00       7.39        0.08    14.28   0.655
  sub11                     11.28       0.00       0.00       0.68       6.88       0.00       6.88        0.08    14.08   0.610
  sub12                     11.28       0.00       0.00       1.19       7.00       0.00       7.00        0.06    11.60   0.621
  sub14                     11.28       0.00       0.00       0.73       6.51       0.00       6.51        0.06    10.91   0.577
  sub15                     11.28       0.00       0.00       2.86       5.85       0.00       5.85        0.10    17.64   0.519
  sub16                     11.28       0.00       0.00       3.20       5.71       0.00       5.71        0.06    10.94   0.507
  sub17                     11.28       0.00       0.00       3.38       6.30       0.00       6.30        0.05     9.56   0.559
  sub2                      11.28       0.00       0.00       3.86       5.74       0.00       5.74        0.05     9.14   0.509
  sub22                     11.28       0.00       0.00       4.70       5.46       0.00       5.46        0.35    60.64   0.484
  sub23                     11.28       0.00       0.00       3.76       5.63       0.00       5.63        0.27    47.25   0.499
  sub3                      11.28       0.00       0.00       3.83       5.67       0.00       5.67        0.13    20.91   0.502
  sub4                      11.28       0.00       0.00       1.10       7.67       0.00       7.67        0.16    24.95   0.680
  sub5                      11.28       0.00       0.00       0.65       7.62       0.00       7.62        0.09    15.08   0.676
  sub60                     11.28       0.00       0.00       1.04       6.73       0.00       6.73        0.09    15.61   0.597
  sub61                     11.28       0.00       0.00       1.57       6.72       0.00       6.72        0.12    21.92   0.596
  sub62                     11.28       0.00       0.00       0.71       7.15       0.00       7.15        0.20    34.31   0.634
  sub63                     11.28       0.00       0.00       2.68       5.76       0.00       5.76        0.13    23.02   0.510
  sub64                     11.28       0.00       0.00       1.32       6.54       0.00       6.54        0.16    27.30   0.580
  sub65                     11.28       0.00       0.00       1.20       7.04       0.00       7.04        0.19    33.29   0.625
  sub66                     11.28       0.00       0.00       2.59       5.52       0.00       5.52        0.26    42.66   0.490
  sub67                     11.28       0.00       0.00       0.73       7.35       0.00       7.35        0.14    25.56   0.652
  sub68                     11.28       0.00       0.00       1.20       6.48       0.00       6.48        0.18    31.39   0.575
  sub69                     11.28       0.00       0.00       1.23       7.52       0.11       7.63        0.28    44.50   0.677
  sub7                      11.28       0.00       0.00       0.79       6.98       0.00       6.98        0.02     4.20   0.619
  sub70                     11.28       0.00       0.00       3.05       5.99       0.09       6.08        0.18    26.67   0.539
  sub71                     11.28       0.00       0.00       0.64       6.49       0.00       6.49        0.17    29.37   0.575
  sub72                     11.28       0.00       0.00       0.60       6.98       0.00       6.98        0.10    16.04   0.619
  sub8                      11.28       0.00       0.00       0.76       6.78       0.00       6.78        0.04     7.63   0.601
  sub9                      11.28       0.00       0.00       0.74       6.58       0.00       6.58        0.03     5.57   0.583
  

  ***********************
  LID Performance Summary
  ***********************

  --------------------------------------------------------------------------------------------------------------------
                                         Total      Evap     Infil   Surface    Drain    Initial     Final  Continuity
                                        Inflow      Loss      Loss   Outflow   Outflow   Storage   Storage       Error
  Subcatchment      LID Control             mm        mm        mm        mm        mm        mm        mm           %
  --------------------------------------------------------------------------------------------------------------------
  sub1              GreenRoof            11.28      0.00      0.00      0.00      0.00      7.05     18.33        0.00
  sub10             GreenRoof            11.28      0.00      0.00      0.00      0.00      7.05     18.33        0.00
  sub11             GreenRoof            11.28      0.00      0.00      0.00      0.00      7.05     18.33        0.00
  sub12             GreenRoof            11.28      0.00      0.00      0.00      0.00      7.05     18.33        0.00
  sub14             GreenRoof            11.28      0.00      0.00      0.00      0.00      7.05     18.33        0.00
  sub15             GreenRoof            11.28      0.00      0.00      0.00      0.00      7.05     18.33        0.00
  sub16             GreenRoof            11.28      0.00      0.00      0.00      0.00      7.05     18.33        0.00
  sub17             GreenRoof            11.28      0.00      0.00      0.00      0.00      7.05     18.33        0.00
  sub2              GreenRoof            11.28      0.00      0.00      0.00      0.00      7.05     18.33        0.00
  sub22             GreenRoof            11.28      0.00      0.00      0.00      0.00      7.05     18.33        0.00
  sub23             GreenRoof            11.28      0.00      0.00      0.00      0.00      7.05     18.33        0.00
  sub3              GreenRoof            11.28      0.00      0.00      0.00      0.00      7.05     18.33        0.00
  sub4              GreenRoof            11.28      0.00      0.00      0.00      0.00      7.05     18.33        0.00
  sub5              GreenRoof            11.28      0.00      0.00      0.00      0.00      7.05     18.33        0.00
  sub60             GreenRoof            11.28      0.00      0.00      0.00      0.00      7.05     18.33        0.00
  sub61             GreenRoof            11.28      0.00      0.00      0.00      0.00      7.05     18.33        0.00
  sub62             GreenRoof            11.28      0.00      0.00      0.00      0.00      7.05     18.33        0.00
  sub63             GreenRoof            11.28      0.00      0.00      0.00      0.00      7.05     18.33        0.00
  sub64             GreenRoof            11.28      0.00      0.00      0.00      0.00      7.05     18.33        0.00
  sub65             GreenRoof            11.28      0.00      0.00      0.00      0.00      7.05     18.33        0.00
  sub66             GreenRoof            11.28      0.00      0.00      0.00      0.00      7.05     18.33        0.00
  sub67             GreenRoof            11.28      0.00      0.00      0.00      0.00      7.05     18.33        0.00
  sub68             GreenRoof            11.28      0.00      0.00      0.00      0.00      7.05     18.33        0.00
  sub69             GreenRoof            11.28      0.00      0.00      0.00      0.00      7.05     18.33        0.00
  sub7              GreenRoof            11.28      0.00      0.00      0.00      0.00      7.05     18.33        0.00
  sub70             GreenRoof            11.28      0.00      0.00      0.00      0.00      7.05     18.33        0.00
  sub71             GreenRoof            11.28      0.00      0.00      0.00      0.00      7.05     18.33        0.00
  sub72             GreenRoof            11.28      0.00      0.00      0.00      0.00      7.05     18.33        0.00
  sub8              GreenRoof            11.28      0.00      0.00      0.00      0.00      7.05     18.33        0.00
  sub9              GreenRoof            11.28      0.00      0.00      0.00      0.00      7.05     18.33        0.00
  
  ******************
  Node Depth Summary
  ******************
  
  ---------------------------------------------------------------------------------
                                 Average  Maximum  Maximum  Time of Max    Reported
                                   Depth    Depth      HGL   Occurrence   Max Depth
  Node                 Type       Meters   Meters   Meters  days hr:min      Meters
  ---------------------------------------------------------------------------------
  HS02004478           JUNCTION     0.05     0.14     9.37     0  02:08        0.14
  HS02004479           JUNCTION     0.10     0.25     9.45     0  02:06        0.25
  HS02004480           JUNCTION     0.07     0.21     9.45     0  02:07        0.21
  HS02004770           JUNCTION     0.10     0.23    10.06     0  02:06        0.23
  HS02004777           JUNCTION     0.13     0.26    10.06     0  02:06        0.26
  HS02004785           JUNCTION     0.04     0.14    10.04     0  02:07        0.14
  HS02004788           JUNCTION     0.02     0.08     9.98     0  02:07        0.08
  HS02004792           JUNCTION     0.03     0.11     9.63     0  02:06        0.11
  HS02004799           JUNCTION     0.11     0.27     9.48     0  02:06        0.27
  HS02004802           JUNCTION     0.14     0.25     9.38     0  02:08        0.25
  HS02004807           JUNCTION     0.11     0.22     9.39     0  02:08        0.22
  HS02004817           JUNCTION     0.41     0.54     9.39     0  02:08        0.54
  HS02004824           JUNCTION     0.02     0.05     9.45     0  02:09        0.05
  HS02004830           JUNCTION     0.04     0.07     9.54     0  02:08        0.07
  HS02004837           JUNCTION     0.03     0.05     9.63     0  02:07        0.05
  HS02004842           JUNCTION     0.32     0.36     9.63     0  02:07        0.36
  HS02004848           JUNCTION     0.01     0.03     9.63     0  02:07        0.03
  HS02004852           JUNCTION     0.01     0.03     9.55     0  02:08        0.03
  HS02004856           JUNCTION     0.07     0.11     9.53     0  02:08        0.11
  HS02004862           JUNCTION     0.01     0.06     9.44     0  02:08        0.06
  HS02004870           JUNCTION     0.01     0.05     9.33     0  02:07        0.05
  HS02004876           JUNCTION     0.04     0.10     9.13     0  02:06        0.10
  HS02004881           JUNCTION     0.01     0.03     9.06     0  02:07        0.03
  HS02004901           JUNCTION     0.11     0.24    10.06     0  02:06        0.24
  WS02001211           JUNCTION     0.60     0.62     5.46     0  02:20        0.62
  WS02001212           JUNCTION     0.33     0.35     5.42     0  02:19        0.35
  WS02001213           JUNCTION     0.52     0.60     5.36     0  02:18        0.60
  WS02003059           JUNCTION     0.58     0.66     5.35     0  02:18        0.66
  WS02003060           JUNCTION     0.28     0.39     5.32     0  02:17        0.39
  WS02003066           JUNCTION     0.15     0.25     5.81     0  02:16        0.25
  WS02003067           JUNCTION     0.41     0.62     5.94     0  02:15        0.62
  WS02003069           JUNCTION     0.31     0.44     5.02     0  02:18        0.44
  WS02003072           JUNCTION     0.38     0.51     4.88     0  02:18        0.51
  WS02003073           JUNCTION     0.22     0.30     4.37     0  02:19        0.30
  WS02004138           JUNCTION     0.13     0.14     7.39     0  00:32        0.14
  WS02004139           JUNCTION     0.54     0.56     5.47     0  02:21        0.56
  WS02004401           JUNCTION     0.47     0.71     6.71     0  02:12        0.71
  WS02004402           JUNCTION     0.51     0.74     6.70     0  02:12        0.74
  WS02004403           JUNCTION     0.54     0.77     6.70     0  02:12        0.77
  WS02004404           JUNCTION     0.61     0.84     6.69     0  02:12        0.84
  WS02004405           JUNCTION     0.61     0.84     6.69     0  02:12        0.84
  WS02004406           JUNCTION     0.63     0.85     6.68     0  02:13        0.85
  WS02004407           JUNCTION     0.12     0.24     6.55     0  02:13        0.24
  WS02004409           JUNCTION     0.27     0.53     6.30     0  02:14        0.53
  WS02004410           JUNCTION     0.30     0.55     6.27     0  02:15        0.55
  WS02004411           JUNCTION     0.32     0.57     6.25     0  02:15        0.57
  WS02004412           JUNCTION     0.35     0.59     6.23     0  02:15        0.59
  WS02004413           JUNCTION     0.51     0.75     6.22     0  02:15        0.75
  WS02006109           JUNCTION     0.51     0.78     7.40     0  02:10        0.78
  WS02006110           JUNCTION     0.53     0.77     7.36     0  02:10        0.77
  WS02006111           JUNCTION     0.13     0.23     6.94     0  02:11        0.23
  WS02006112           JUNCTION     0.61     0.89     6.77     0  02:11        0.89
  WS02006113           JUNCTION     0.19     0.36     7.25     0  02:10        0.36
  WS02006115           JUNCTION     0.35     0.60     6.74     0  02:11        0.60
  WS02006116           JUNCTION     0.44     0.69     6.73     0  02:12        0.69
  WS02006228           JUNCTION     0.49     0.77     7.42     0  02:10        0.77
  WS02006229           JUNCTION     0.45     0.74     7.44     0  02:09        0.74
  WS02006230           JUNCTION     0.40     0.70     7.44     0  02:10        0.70
  WS02006231           JUNCTION     0.23     0.44     7.56     0  00:07        0.44
  WS02006232           JUNCTION     0.33     0.58     7.61     0  00:07        0.57
  WS02006234           JUNCTION     0.22     0.48     7.64     0  03:15        0.47
  WS02006235           JUNCTION     0.24     0.52     7.69     0  03:14        0.52
  WS02006238           JUNCTION     0.26     0.55     7.69     0  00:06        0.53
  WS02006239           JUNCTION     0.21     0.53     7.74     0  00:06        0.52
  WS02006240           JUNCTION     0.18     0.51     7.80     0  00:06        0.50
  WS02006242           JUNCTION     0.24     0.61     7.88     0  00:05        0.61
  WS02006243           JUNCTION     0.14     0.51     7.93     0  00:05        0.49
  WS02006245           JUNCTION     0.17     0.53     8.01     0  00:05        0.51
  WS02006247           JUNCTION     0.19     0.57     8.07     0  00:05        0.57
  WS02006248           JUNCTION     0.14     0.53     8.12     0  00:04        0.53
  WS02006249           JUNCTION     0.19     0.58     8.18     0  00:05        0.58
  WS02006251           JUNCTION     0.17     0.60     8.27     0  00:04        0.60
  WS02006252           JUNCTION     0.18     1.50     9.74     0  00:00        0.58
  WS02006253           JUNCTION     0.20     0.63     8.27     0  00:04        0.63
  WS02006256           JUNCTION     0.49     2.35     9.28     0  00:00        2.35
  WS02006280           JUNCTION     0.05     0.15     8.43     0  02:08        0.15
  WS02006284           JUNCTION     0.34     0.50     8.89     0  02:08        0.50
  WS02006287           JUNCTION     0.08     0.23     9.18     0  02:08        0.23
  WSF200               JUNCTION     0.12     0.25     5.48     0  02:16        0.25
  YS02001580           JUNCTION     0.00     0.00     8.54     0  00:00        0.00
  YS02001583           JUNCTION     0.00     0.00     8.50     0  00:00        0.00
  YS02001586           JUNCTION     0.03     0.09     8.26     0  02:07        0.09
  YS02001590           JUNCTION     0.07     0.18     8.04     0  02:08        0.18
  YS02001593           JUNCTION     0.03     0.08     7.95     0  02:08        0.08
  YS02001596           JUNCTION     0.03     0.09     7.51     0  02:08        0.09
  YS02001600           JUNCTION     0.03     0.12     7.25     0  02:07        0.12
  YS02001601           JUNCTION     0.18     0.41     7.25     0  02:08        0.41
  YS02001602           JUNCTION     0.13     0.34     7.24     0  02:08        0.34
  YS02001605           JUNCTION     0.12     0.32     7.23     0  02:09        0.32
  YS02001607           JUNCTION     0.16     0.36     7.21     0  02:09        0.36
  YS02001610           JUNCTION     0.20     0.41     7.21     0  02:09        0.41
  YS02001613           JUNCTION     0.16     0.36     7.20     0  02:10        0.36
  YS02001616           JUNCTION     0.10     0.28     7.19     0  02:10        0.28
  YS02001619           JUNCTION     0.08     0.25     7.18     0  02:09        0.25
  YS02001622           JUNCTION     0.08     0.22     7.13     0  02:11        0.22
  YS02001625           JUNCTION     0.33     0.53     7.13     0  02:10        0.53
  YS02001629           JUNCTION     0.14     0.38     6.93     0  02:10        0.38
  YS02001633           JUNCTION     0.22     0.47     6.92     0  02:10        0.47
  YS02001641           JUNCTION     0.23     0.47     6.91     0  02:10        0.47
  YS02001644           JUNCTION     0.24     0.47     6.90     0  02:10        0.47
  YS02001647           JUNCTION     0.06     0.21     6.82     0  02:10        0.21
  YS02001649           JUNCTION     0.07     0.23     6.62     0  02:10        0.23
  YS02001652           JUNCTION     0.02     0.08     6.67     0  02:06        0.08
  YS02001655           JUNCTION     0.02     0.07     6.92     0  02:06        0.07
  YS02001658           JUNCTION     0.02     0.07     7.21     0  02:06        0.07
  YS02001661           JUNCTION     0.08     0.14     7.54     0  02:05        0.14
  YS02001664           JUNCTION     0.02     0.06     7.99     0  02:05        0.06
  YS02001745           JUNCTION     0.01     0.06     7.57     0  01:35        0.06
  YS02001748           JUNCTION     0.02     0.06     7.14     0  01:35        0.06
  YS02001751           JUNCTION     0.02     0.06     6.94     0  01:36        0.06
  YS02001754           JUNCTION     0.02     0.06     6.67     0  01:36        0.06
  YS02001757           JUNCTION     0.07     0.23     6.49     0  02:09        0.23
  YS02001759           JUNCTION     0.05     0.14     6.50     0  02:06        0.14
  YS02001762           JUNCTION     0.05     0.14     6.54     0  02:08        0.14
  YS02001765           JUNCTION     0.04     0.12     6.57     0  02:08        0.12
  YS02001767           JUNCTION     0.05     0.14     6.63     0  02:07        0.14
  YS02001770           JUNCTION     0.06     0.18     6.67     0  02:07        0.18
  YS02001774           JUNCTION     0.12     0.25     6.67     0  02:06        0.25
  YS02001779           JUNCTION     0.00     0.00     6.69     0  00:02        0.00
  YS02001783           JUNCTION     0.07     0.21     6.35     0  02:08        0.21
  YS02001784           JUNCTION     0.09     0.25     6.32     0  02:09        0.25
  YS02001786           JUNCTION     0.09     0.21     6.24     0  02:09        0.21
  YS02001788           JUNCTION     0.06     0.15     6.13     0  02:10        0.15
  YS02001790           JUNCTION     0.07     0.18     5.83     0  02:10        0.18
  YS02001791           JUNCTION     0.05     0.12     5.59     0  02:10        0.12
  YS02001793           JUNCTION     0.03     0.19     5.02     0  02:59        0.17
  YS02001882           JUNCTION     0.11     0.25     6.97     0  02:09        0.25
  YS02001884           JUNCTION     0.20     0.35     6.97     0  02:09        0.35
  YS02001887           JUNCTION     0.27     0.43     6.97     0  02:09        0.43
  YS02001890           JUNCTION     0.30     0.46     6.97     0  02:08        0.46
  YS02001895           JUNCTION     0.08     0.22     6.97     0  02:08        0.22
  YS02001898           JUNCTION     0.09     0.23     6.97     0  02:07        0.23
  YS02001901           JUNCTION     0.20     0.36     6.97     0  02:08        0.36
  YS02001904           JUNCTION     0.18     0.33     6.96     0  02:08        0.33
  YS02001907           JUNCTION     0.49     0.67     6.96     0  02:08        0.67
  YS02001910           JUNCTION     0.29     0.46     6.97     0  02:09        0.46
  YS02001915           JUNCTION     0.11     0.24     6.96     0  02:09        0.24
  YS02001918           JUNCTION     0.04     0.07     7.14     0  02:10        0.07
  YS02001920           JUNCTION     0.11     0.17     7.17     0  02:09        0.17
  YS02001923           JUNCTION     0.02     0.06     7.32     0  02:08        0.06
  YS02001926           JUNCTION     0.06     0.14     7.58     0  02:08        0.14
  YS02001929           JUNCTION     0.02     0.06     7.76     0  02:07        0.06
  YS02006553           JUNCTION     0.50     0.68     6.96     0  02:08        0.68
  YS02006556           JUNCTION     0.47     0.65     6.96     0  02:08        0.65
  YS02006558           JUNCTION     0.51     0.70     6.96     0  02:08        0.70
  YS02006561           JUNCTION     0.04     0.13     6.79     0  02:08        0.13
  YS02163301           JUNCTION     0.16     0.41     6.93     0  02:10        0.41
  YS02163601           JUNCTION     0.27     0.52     6.92     0  02:10        0.52
  YS02164001           JUNCTION     0.21     0.45     6.91     0  02:10        0.45
  YSB1154              JUNCTION     0.23     0.39     9.45     0  02:06        0.39
  YSB1171              JUNCTION     0.38     0.55     9.45     0  02:06        0.55
  YSB1174              JUNCTION     0.18     0.34     9.45     0  02:07        0.34
  YSB6556              JUNCTION     0.13     0.28     9.45     0  02:07        0.28
  CC-1                 OUTFALL      0.00     0.00     0.00     0  00:00        0.00
  CC-2                 OUTFALL      0.00     0.00     0.00     0  00:00        0.00
  JK-1                 OUTFALL      0.00     0.00     0.00     0  00:00        0.00
  JK-2                 OUTFALL      0.00     0.00     0.00     0  00:00        0.00
  WSC                  OUTFALL      0.22     0.30     0.97     0  02:19        0.30
  CC-storage           STORAGE      0.63     0.80     6.30     0  00:00        0.76
  JK-storage           STORAGE      2.69     4.20     5.00     0  02:28        4.18
  XR-storage           STORAGE      8.08     9.26     7.26     0  08:00        9.26
  
  
  *******************
  Node Inflow Summary
  *******************
  
  -------------------------------------------------------------------------------------------------
                                  Maximum  Maximum                  Lateral       Total        Flow
                                  Lateral    Total  Time of Max      Inflow      Inflow     Balance
                                   Inflow   Inflow   Occurrence      Volume      Volume       Error
  Node                 Type           LPS      LPS  days hr:min    10^6 ltr    10^6 ltr     Percent
  -------------------------------------------------------------------------------------------------
  HS02004478           JUNCTION      0.00   243.34     0  02:07           0        1.57       0.024
  HS02004479           JUNCTION      0.00    25.80     0  02:08           0       0.156       0.464
  HS02004480           JUNCTION      0.00   174.59     0  02:06           0        1.03       0.105
  HS02004770           JUNCTION     47.25    57.77     0  02:05       0.268       0.327       0.955
  HS02004777           JUNCTION      0.03    57.76     0  02:05    0.000864       0.325       1.609
  HS02004785           JUNCTION      0.15    57.87     0  02:06     0.00432       0.325       0.143
  HS02004788           JUNCTION     19.31    77.11     0  02:06       0.149       0.472       0.083
  HS02004792           JUNCTION     60.92   137.97     0  02:06       0.353       0.824       0.051
  HS02004799           JUNCTION     10.91   148.84     0  02:06       0.062       0.886       0.296
  HS02004802           JUNCTION      0.00    69.08     0  02:09           0       0.555       0.714
  HS02004807           JUNCTION     14.08    69.03     0  02:08      0.0799       0.558       0.782
  HS02004817           JUNCTION      0.60    55.25     0  02:09      0.0173       0.495       3.484
  HS02004824           JUNCTION     25.00    54.66     0  02:08       0.161       0.478       0.113
  HS02004830           JUNCTION      0.15    29.66     0  02:07     0.00432       0.318       0.388
  HS02004837           JUNCTION     20.63    29.53     0  02:07       0.264       0.327       0.251
  HS02004842           JUNCTION      0.00     9.01     0  02:09           0      0.0757      20.714
  HS02004848           JUNCTION     20.91    20.91     0  02:07       0.128       0.128       0.034
  HS02004852           JUNCTION      0.00    11.92     0  02:07           0      0.0648       0.070
  HS02004856           JUNCTION      5.57    17.40     0  02:07      0.0316      0.0964       1.509
  HS02004862           JUNCTION      9.34    26.70     0  02:07      0.0593       0.154       0.106
  HS02004870           JUNCTION      7.63    34.24     0  02:07      0.0433       0.197       0.052
  HS02004876           JUNCTION      9.12    43.31     0  02:07      0.0524        0.25       0.201
  HS02004881           JUNCTION      4.20    47.48     0  02:07      0.0235       0.273       0.021
  HS02004901           JUNCTION     10.94    10.94     0  01:34      0.0598      0.0601       3.001
  WS02001211           JUNCTION      7.35   198.11     0  02:49       0.212        5.44       0.611
  WS02001212           JUNCTION      0.00   198.62     0  02:48           0        5.41       0.290
  WS02001213           JUNCTION      0.00   199.08     0  02:47           0        5.39       0.338
  WS02003059           JUNCTION      0.00   200.20     0  02:47           0        5.38       0.606
  WS02003060           JUNCTION     16.53   573.31     0  02:17       0.476        9.17       0.177
  WS02003066           JUNCTION      0.00   359.62     0  02:16           0        3.35       0.061
  WS02003067           JUNCTION      0.00   359.61     0  02:15           0        3.35       0.157
  WS02003069           JUNCTION      0.32   573.63     0  02:17     0.00922        9.15       0.186
  WS02003072           JUNCTION      0.00   573.62     0  02:18           0        9.14       0.250
  WS02003073           JUNCTION      1.82   575.44     0  02:18      0.0524        9.17       0.261
  WS02004138           JUNCTION      0.00   380.00     0  00:00           0        5.25       0.053
  WS02004139           JUNCTION      0.32   190.32     0  00:32     0.00924        5.26       0.507
  WS02004401           JUNCTION      0.00   360.26     0  02:11           0        3.48       0.365
  WS02004402           JUNCTION      0.00   360.12     0  02:12           0        3.47       0.363
  WS02004403           JUNCTION      0.00   360.06     0  02:12           0        3.46       0.348
  WS02004404           JUNCTION      0.16   360.17     0  02:12     0.00467        3.45       0.281
  WS02004405           JUNCTION      0.04   360.16     0  02:12      0.0011        3.44       0.420
  WS02004406           JUNCTION      0.00   360.18     0  02:13           0        3.43       0.697
  WS02004407           JUNCTION      0.00   360.12     0  02:13           0         3.4       0.079
  WS02004409           JUNCTION      0.00   360.11     0  02:13           0         3.4       0.164
  WS02004410           JUNCTION      0.00   359.96     0  02:13           0         3.4       0.217
  WS02004411           JUNCTION      0.00   359.83     0  02:14           0        3.39       0.249
  WS02004412           JUNCTION      0.00   359.73     0  02:14           0        3.38       0.306
  WS02004413           JUNCTION      0.00   359.65     0  02:15           0        3.37       0.511
  WS02006109           JUNCTION      1.23   351.71     0  02:09      0.0354         3.5       0.388
  WS02006110           JUNCTION      0.00   351.70     0  02:09           0        3.48       0.298
  WS02006111           JUNCTION      0.00   358.84     0  02:11           0        3.47       0.056
  WS02006112           JUNCTION      9.56   361.39     0  02:10      0.0541        3.52       0.587
  WS02006113           JUNCTION      0.00   351.75     0  02:10           0        3.47       0.099
  WS02006115           JUNCTION      0.00   360.69     0  02:10           0         3.5       0.272
  WS02006116           JUNCTION      0.00   360.46     0  02:10           0        3.49       0.238
  WS02006228           JUNCTION      0.00   350.48     0  02:10           0        3.47       0.226
  WS02006229           JUNCTION      0.00   350.48     0  02:09           0        3.47       0.132
  WS02006230           JUNCTION     10.28   256.81     0  00:08       0.296        1.91       0.430
  WS02006231           JUNCTION      0.00   259.31     0  00:06           0        1.62       0.188
  WS02006232           JUNCTION      0.00   278.83     0  00:06           0        1.63       0.524
  WS02006234           JUNCTION      0.00   313.58     0  00:06           0        1.63      -0.008
  WS02006235           JUNCTION      0.00   349.48     0  03:11           0        1.65       0.372
  WS02006238           JUNCTION      0.00   321.79     0  00:06           0        1.31       0.012
  WS02006239           JUNCTION      0.00   324.65     0  00:06           0         1.3       0.048
  WS02006240           JUNCTION      0.00   348.36     0  00:05           0        1.29       0.164
  WS02006242           JUNCTION      0.00   357.37     0  00:05           0        1.29       0.284
  WS02006243           JUNCTION      0.00   371.50     0  00:05           0        1.29       0.299
  WS02006245           JUNCTION      0.00   383.04     0  00:05           0         1.3       0.456
  WS02006247           JUNCTION      0.00   385.59     0  00:04           0         1.3       0.170
  WS02006248           JUNCTION      0.00   390.96     0  00:04           0         1.3       0.135
  WS02006249           JUNCTION      0.00   400.45     0  00:02           0        1.31       0.568
  WS02006251           JUNCTION      0.08   456.89     0  00:01     0.00222        1.33       0.171
  WS02006252           JUNCTION      0.00   400.00     0  00:00           0        1.03      -0.002
  WS02006253           JUNCTION      1.44   197.53     0  00:00     0.00747       0.294       0.572
  WS02006256           JUNCTION      0.00   300.00     0  00:00           0       0.367      -0.576
  WS02006280           JUNCTION      0.00   243.44     0  02:08           0        1.57       0.005
  WS02006284           JUNCTION      0.10   243.44     0  02:08     0.00275        1.57       0.061
  WS02006287           JUNCTION      0.00   243.35     0  02:08           0        1.57       0.044
  WSF200               JUNCTION      0.00   359.62     0  02:16           0        3.35       0.045
  YS02001580           JUNCTION      0.00     0.00     0  00:00           0           0       0.000 ltr
  YS02001583           JUNCTION      0.00     0.00     0  00:00           0           0       0.000 ltr
  YS02001586           JUNCTION     26.67    26.67     0  02:07       0.176       0.176       0.039
  YS02001590           JUNCTION      0.00    26.66     0  02:07           0       0.176       0.033
  YS02001593           JUNCTION      0.00    26.64     0  02:08           0       0.176       0.009
  YS02001596           JUNCTION      0.00    26.64     0  02:08           0       0.176       0.011
  YS02001600           JUNCTION      0.00    26.63     0  02:08           0       0.176       0.016
  YS02001601           JUNCTION     44.50    70.93     0  02:07       0.283       0.458       0.196
  YS02001602           JUNCTION      0.00    70.84     0  02:07           0       0.457       0.090
  YS02001605           JUNCTION      0.00    70.76     0  02:07           0       0.457       0.095
  YS02001607           JUNCTION      0.00    70.63     0  02:08           0       0.456       0.416
  YS02001610           JUNCTION      0.00    70.51     0  02:08           0       0.455       0.496
  YS02001613           JUNCTION      0.00    70.45     0  02:09           0       0.453       0.353
  YS02001616           JUNCTION      0.00    70.45     0  02:10           0       0.453       0.086
  YS02001619           JUNCTION     42.66   112.72     0  02:09       0.258       0.709       0.004
  YS02001622           JUNCTION      0.00   112.68     0  02:09           0       0.708       0.022
  YS02001625           JUNCTION      0.00   112.60     0  02:10           0       0.708       1.360
  YS02001629           JUNCTION      0.00   112.51     0  02:11           0       0.699       0.066
  YS02001633           JUNCTION     33.49   145.13     0  02:09         0.2       0.898       0.385
  YS02001641           JUNCTION      0.00   145.29     0  02:11           0       0.897       0.312
  YS02001644           JUNCTION     27.34   171.56     0  02:10       0.158        1.05       0.317
  YS02001647           JUNCTION      0.00   171.54     0  02:10           0        1.04       0.030
  YS02001649           JUNCTION      0.00   194.19     0  02:09           0        1.17       0.023
  YS02001652           JUNCTION      0.00    23.16     0  02:06           0       0.135      -0.068
  YS02001655           JUNCTION      0.15    23.17     0  02:06     0.00443       0.135       0.019
  YS02001658           JUNCTION      0.00    23.02     0  02:05           0        0.13       0.001
  YS02001661           JUNCTION      0.00    23.02     0  02:05           0       0.131       0.249
  YS02001664           JUNCTION     23.02    23.02     0  02:05       0.131       0.131      -0.019
  YS02001745           JUNCTION     15.61    15.61     0  01:35      0.0885      0.0885       0.002
  YS02001748           JUNCTION      0.04    15.65     0  01:35      0.0013      0.0898      -0.000
  YS02001751           JUNCTION      0.01    15.66     0  01:35    0.000317      0.0901       0.012
  YS02001754           JUNCTION      0.26    15.91     0  01:36     0.00749      0.0976      -0.050
  YS02001757           JUNCTION      0.00   265.98     0  02:08           0        1.61       0.064
  YS02001759           JUNCTION     21.96    56.53     0  02:06       0.125       0.339      -0.005
  YS02001762           JUNCTION      0.00    34.91     0  02:08           0       0.214       0.072
  YS02001765           JUNCTION      0.00    34.91     0  02:07           0       0.215       0.051
  YS02001767           JUNCTION      0.54    34.93     0  02:06      0.0154       0.215       0.097
  YS02001770           JUNCTION     34.46    34.46     0  02:06         0.2       0.204       0.025
  YS02001774           JUNCTION      0.00     6.18     0  01:19           0     0.00441      36.083
  YS02001779           JUNCTION      0.01     0.01     0  00:00    0.000144    0.000144       0.297
  YS02001783           JUNCTION      0.00   103.77     0  02:08           0       0.632       0.043
  YS02001784           JUNCTION      1.06   104.69     0  02:09      0.0305       0.663       0.078
  YS02001786           JUNCTION      0.06   104.53     0  02:09     0.00162       0.664       0.099
  YS02001788           JUNCTION      0.07   104.52     0  02:09     0.00204       0.665       0.044
  YS02001790           JUNCTION      0.15   104.64     0  02:10     0.00446       0.669       0.057
  YS02001791           JUNCTION      0.00   104.61     0  02:10           0       0.669       0.028
  YS02001793           JUNCTION      0.00   104.60     0  02:10           0       0.669       0.041
  YS02001882           JUNCTION      0.00     3.81     0  01:40           0     0.00347      21.969
  YS02001884           JUNCTION      0.00     8.39     0  01:40           0      0.0118      26.836
  YS02001887           JUNCTION     26.01    26.01     0  01:34        0.15       0.156       2.977
  YS02001890           JUNCTION      0.00    26.07     0  02:04           0       0.142       3.734
  YS02001895           JUNCTION      0.00    24.91     0  02:07           0       0.137       1.009
  YS02001898           JUNCTION      0.00    25.36     0  02:07           0       0.136       0.358
  YS02001901           JUNCTION      0.00    26.88     0  02:08           0       0.138       2.383
  YS02001904           JUNCTION      0.00    25.51     0  02:08           0       0.141       2.104
  YS02001907           JUNCTION      0.00    72.94     0  02:10           0       0.482       3.880
  YS02001910           JUNCTION      0.00    51.36     0  02:07           0       0.348       2.093
  YS02001915           JUNCTION     29.39    48.10     0  02:07        0.17        0.35       0.485
  YS02001918           JUNCTION      0.00    18.94     0  02:09           0        0.18       0.160
  YS02001920           JUNCTION      2.87    18.96     0  02:08      0.0827       0.181       0.574
  YS02001923           JUNCTION      0.04    16.09     0  02:08     0.00109      0.0984       0.017
  YS02001926           JUNCTION      0.05    16.09     0  02:07      0.0015      0.0975       0.209
  YS02001929           JUNCTION     16.04    16.04     0  02:07       0.096       0.096      -0.004
  YS02006553           JUNCTION      0.00    73.20     0  02:10           0       0.472       2.566
  YS02006556           JUNCTION      0.00    73.49     0  02:10           0       0.478       1.761
  YS02006558           JUNCTION     32.27   104.05     0  02:08       0.204       0.659       0.525
  YS02006561           JUNCTION      0.00   103.84     0  02:08           0       0.632       0.017
  YS02163301           JUNCTION      0.00   112.54     0  02:11           0       0.701       0.221
  YS02163601           JUNCTION      0.11   145.18     0  02:10     0.00317       0.896       0.548
  YS02164001           JUNCTION      0.00   145.22     0  02:11           0       0.894       0.270
  YSB1154              JUNCTION     15.08    15.08     0  02:06      0.0864      0.0872       1.679
  YSB1171              JUNCTION      0.00    25.86     0  02:05           0       0.155       4.238
  YSB1174              JUNCTION     11.60    11.60     0  01:33      0.0612      0.0617       2.119
  YSB6556              JUNCTION      0.00    15.08     0  02:06           0      0.0879       1.432
  CC-1                 OUTFALL       0.00   683.00     0  00:00           0       0.595       0.000
  CC-2                 OUTFALL       0.00   683.00     0  00:00           0       0.656       0.000
  JK-1                 OUTFALL       0.00  1000.00     0  00:00           0       0.201       0.000
  JK-2                 OUTFALL       0.00  1000.00     0  00:00           0      0.0484       0.000
  WSC                  OUTFALL       0.00   575.42     0  02:19           0        9.14       0.000
  CC-storage           STORAGE       0.00   265.89     0  02:09           0        3.84      -0.391
  JK-storage           STORAGE       0.00   299.30     0  03:00           0       0.819       0.950
  XR-storage           STORAGE     200.00   200.00     0  00:00        5.76        6.36       0.001
  
  
  **********************
  Node Surcharge Summary
  **********************
  
  Surcharging occurs when water rises above the top of the highest conduit.
  ---------------------------------------------------------------------
                                               Max. Height   Min. Depth
                                   Hours       Above Crown    Below Rim
  Node                 Type      Surcharged         Meters       Meters
  ---------------------------------------------------------------------
  WS02006252           JUNCTION        0.08          1.100        0.000
  WS02006256           JUNCTION        7.99          2.050        0.000
  
  
  *********************
  Node Flooding Summary
  *********************
  
  Flooding refers to all water that overflows a node, whether it ponds or not.
  --------------------------------------------------------------------------
                                                             Total   Maximum
                                 Maximum   Time of Max       Flood    Ponded
                        Hours       Rate    Occurrence      Volume     Depth
  Node                 Flooded       LPS   days hr:min    10^6 ltr    Meters
  --------------------------------------------------------------------------
  WS02006252              0.01    245.63      0  00:00       0.000     0.000
  WS02006256              0.09    293.19      0  00:00       0.016     0.000
  
  
  **********************
  Storage Volume Summary
  **********************
  
  --------------------------------------------------------------------------------------------------
                         Average     Avg  Evap Exfil       Maximum     Max    Time of Max    Maximum
                          Volume    Pcnt  Pcnt  Pcnt        Volume    Pcnt     Occurrence    Outflow
  Storage Unit           1000 m3    Full  Loss  Loss       1000 m3    Full    days hr:min        LPS
  --------------------------------------------------------------------------------------------------
  CC-storage               1.765      28     0     0         2.229      35       0  00:00    1783.53
  JK-storage               0.135      46     0     0         0.211      72       0  02:28    2300.00
  XR-storage               0.970      67     0     0         1.111      77       0  08:00     380.00
  
  
  ***********************
  Outfall Loading Summary
  ***********************
  
  -----------------------------------------------------------
                         Flow       Avg       Max       Total
                         Freq      Flow      Flow      Volume
  Outfall Node           Pcnt       LPS       LPS    10^6 ltr
  -----------------------------------------------------------
  CC-1                  17.58     83.71    683.00       0.595
  CC-2                  21.04     81.17    683.00       0.656
  JK-1                   0.55   1000.00   1000.00       0.201
  JK-2                   0.10   1000.00   1000.00       0.048
  WSC                   99.97    314.03    575.42       9.143
  -----------------------------------------------------------
  System                27.85   2478.91    575.42      10.644
  
  
  ********************
  Link Flow Summary
  ********************
  
  -----------------------------------------------------------------------------
                                 Maximum  Time of Max   Maximum    Max/    Max/
                                  |Flow|   Occurrence   |Veloc|    Full    Full
  Link                 Type          LPS  days hr:min     m/sec    Flow   Depth
  -----------------------------------------------------------------------------
  1                    CONDUIT    575.42     0  02:19      2.86    0.20    0.30
  HS02004478WS02006287 CONDUIT    243.35     0  02:08      1.41    0.07    0.19
  HS02004479HS02004480 CONDUIT     25.92     0  02:09      0.28    0.03    0.33
  HS02004480HS02004478 CONDUIT    174.55     0  02:07      1.01    0.74    0.25
  HS02004770HS02004777 CONDUIT     57.73     0  02:05      0.24    0.11    0.35
  HS02004777HS02004785 CONDUIT     57.72     0  02:06      0.29    0.07    0.28
  HS02004785HS02004788 CONDUIT     57.85     0  02:07      0.54    0.44    0.15
  HS02004788HS02004792 CONDUIT     77.10     0  02:07      0.85    0.05    0.13
  HS02004792HS02004799 CONDUIT    137.94     0  02:06      0.74    0.08    0.27
  HS02004799HS02004480 CONDUIT    148.81     0  02:06      0.64    0.19    0.33
  HS02004802HS02004478 CONDUIT     69.25     0  02:10      0.36    0.06    0.28
  HS02004807HS02004802 CONDUIT     69.08     0  02:09      0.30    0.13    0.33
  HS02004817HS02004807 CONDUIT     55.39     0  02:10      0.15    0.03    0.54
  HS02004817HS02004824 CONDUIT     54.65     0  02:09      0.19    0.02    0.42
  HS02004824HS02004830 CONDUIT     29.65     0  02:08      0.51    0.04    0.08
  HS02004830HS02004837 CONDUIT     29.51     0  02:07      0.49    0.03    0.09
  HS02004837HS02004842 CONDUIT      9.14     0  02:12      0.41    0.01    0.30
  HS02004842HS02004848 CONDUIT      9.01     0  02:09      0.05    0.01    0.28
  HS02004848HS02004852 CONDUIT     11.92     0  02:07      0.36    0.01    0.05
  HS02004852HS02004856 CONDUIT     11.90     0  02:08      0.17    0.01    0.10
  HS02004856HS02004862 CONDUIT     17.38     0  02:08      0.37    0.02    0.07
  HS02004862HS02004870 CONDUIT     26.68     0  02:08      0.53    0.03    0.07
  HS02004870HS02004876 CONDUIT     34.23     0  02:07      0.46    0.02    0.11
  HS02004876HS02004881 CONDUIT     43.37     0  02:07      0.66    0.46    0.09
  HS02004881HS02006253 CONDUIT     47.47     0  02:07      1.80    0.01    0.21
  HS02004901HS02004770 CONDUIT     10.53     0  02:06      0.05    0.04    0.33
  WS02001211WS02001212 CONDUIT    198.62     0  02:48      0.54    0.15    0.49
  WS02001212WS02001213 CONDUIT    199.08     0  02:47      1.03    0.31    0.32
  WS02001213WS02003059 CONDUIT    200.20     0  02:47      0.47    0.33    0.62
  WS02003059WS02003060 CONDUIT    201.93     0  03:15      0.67    0.13    0.53
  WS02003060WS02003069 CONDUIT    573.31     0  02:17      1.65    0.22    0.35
  WS02003066WSF200     CONDUIT    359.62     0  02:16      2.47    0.06    0.19
  WS02003067WS02003066 CONDUIT    359.62     0  02:16      0.96    0.12    0.37
  WS02003069WS02003072 CONDUIT    573.62     0  02:18      1.39    0.28    0.39
  WS02003072WS02003073 CONDUIT    573.62     0  02:18      1.45    1.24    0.38
  WS02004138WS02004139 CONDUIT    190.00     0  00:32      2.15    0.04    0.32
  WS02004139WS02001211 CONDUIT    190.76     0  02:49      0.54    0.24    0.45
  WS02004401WS02004402 CONDUIT    360.12     0  02:12      0.96    0.43    0.73
  WS02004402WS02004403 CONDUIT    360.06     0  02:12      0.96    0.52    0.76
  WS02004403WS02004404 CONDUIT    360.01     0  02:12      0.92    0.26    0.80
  WS02004404WS02004405 CONDUIT    360.12     0  02:12      1.06    3.53    0.84
  WS02004405WS02004406 CONDUIT    360.18     0  02:13      0.99    0.71    0.84
  WS02004406WS02004407 CONDUIT    360.12     0  02:13      0.82    0.16    0.55
  WS02004407WS02004409 CONDUIT    360.11     0  02:13      1.28    0.13    0.39
  WS02004409WS02004410 CONDUIT    359.96     0  02:13      0.82    0.47    0.54
  WS02004410WS02004411 CONDUIT    359.83     0  02:14      0.79    0.49    0.56
  WS02004411WS02004412 CONDUIT    359.73     0  02:14      0.76    0.51    0.58
  WS02004412WS02004413 CONDUIT    359.65     0  02:15      0.64    0.24    0.67
  WS02004413WS02003067 CONDUIT    359.61     0  02:15      0.90    0.15    0.51
  WS02006109WS02006110 CONDUIT    351.70     0  02:09      0.74    0.68    0.90
  WS02006110WS02006113 CONDUIT    351.75     0  02:10      0.92    0.32    0.71
  WS02006111WS02006112 CONDUIT    352.42     0  02:11      1.76    0.17    0.64
  WS02006112WS02006115 CONDUIT    360.69     0  02:10      0.58    0.21    0.74
  WS02006113WS02006111 CONDUIT    358.84     0  02:11      2.13    0.43    0.37
  WS02006115WS02006116 CONDUIT    360.46     0  02:10      0.98    0.46    0.61
  WS02006116WS02004401 CONDUIT    360.26     0  02:11      0.97    0.50    0.70
  WS02006228WS02006109 CONDUIT    350.48     0  02:09      1.03    1.53    0.96
  WS02006229WS02006228 CONDUIT    350.48     0  02:10      1.06    1.16    0.93
  WS02006230WS02006229 CONDUIT    259.84     0  00:08      1.18    5.78    1.00
  WS02006231WS02006230 CONDUIT    246.53     0  00:08      1.18    3.74    0.53
  WS02006232WS02006231 CONDUIT    259.31     0  00:06      0.98    0.54    0.72
  WS02006234WS02006232 CONDUIT    278.83     0  00:06      1.41    0.56    0.74
  WS02006235WS02006234 CONDUIT    313.58     0  00:06      1.22    3.31    0.69
  WS02006238WS02006235 CONDUIT    318.16     0  00:06      1.45    0.71    0.75
  WS02006239WS02006238 CONDUIT    321.79     0  00:06      1.12    1.03    0.75
  WS02006240WS02006239 CONDUIT    324.65     0  00:06      1.26    1.02    0.71
  WS02006242WS02006240 CONDUIT    348.36     0  00:05      1.14    1.38    0.78
  WS02006243WS02006242 CONDUIT    357.37     0  00:05      1.34    0.76    0.78
  WS02006245WS02006243 CONDUIT    371.50     0  00:05      1.39    1.10    0.73
  WS02006247WS02006245 CONDUIT    383.04     0  00:05      1.37    3.04    0.78
  WS02006248WS02006247 CONDUIT    385.59     0  00:04      1.38    0.84    0.78
  WS02006249WS02006248 CONDUIT    390.96     0  00:04      1.38    2.14    0.78
  WS02006251WS02006249 CONDUIT    400.45     0  00:02      1.68    1.15    0.84
  WS02006252WS02006251 CONDUIT    400.21     0  00:00      3.44    1.47    1.00
  WS02006253WS02006251 CONDUIT    197.53     0  00:00      1.19    0.59    0.87
  WS02006256WS02006235 CONDUIT    288.93     0  00:00      4.23    3.06    1.00
  WS02006280WS02006229 CONDUIT    243.44     0  02:08      3.14    0.05    0.15
  WS02006284WS02006280 CONDUIT    243.44     0  02:08      1.96    0.10    0.22
  WS02006287WS02006284 CONDUIT    243.34     0  02:08      1.72    0.11    0.24
  WSF200WS02003060     CONDUIT    359.62     0  02:16      1.50    0.08    0.27
  YS02001580YS02001583 CONDUIT      0.00     0  00:00      0.00    0.00    0.00
  YS02001583YS02001586 CONDUIT      0.00     0  00:00      0.00    0.00    0.06
  YS02001586YS02001590 CONDUIT     26.66     0  02:07      0.75    0.05    0.18
  YS02001590YS02001593 CONDUIT     26.64     0  02:08      0.52    0.17    0.24
  YS02001593YS02001596 CONDUIT     26.64     0  02:08      1.11    0.04    0.14
  YS02001596YS02001600 CONDUIT     26.63     0  02:08      0.96    0.05    0.15
  YS02001600YS02001601 CONDUIT     26.68     0  02:09      0.23    0.05    0.42
  YS02001601YS02001602 CONDUIT     70.84     0  02:07      0.38    0.26    0.63
  YS02001602YS02001605 CONDUIT     70.76     0  02:07      0.48    1.50    0.55
  YS02001605YS02001607 CONDUIT     70.63     0  02:08      0.54    0.39    0.57
  YS02001607YS02001610 CONDUIT     70.51     0  02:08      0.35    0.07    0.38
  YS02001610YS02001613 CONDUIT     70.45     0  02:09      0.25    0.08    0.38
  YS02001613YS02001616 CONDUIT     70.45     0  02:10      0.32    0.06    0.32
  YS02001616YS02001619 CONDUIT     70.51     0  02:11      0.42    0.12    0.26
  YS02001619YS02001622 CONDUIT    112.68     0  02:09      0.83    0.17    0.24
  YS02001622YS02001625 CONDUIT    112.60     0  02:10      0.42    0.06    0.38
  YS02001625YS02001629 CONDUIT    112.51     0  02:11      0.47    0.05    0.34
  YS02001629YS02163301 CONDUIT    112.54     0  02:11      0.42    0.14    0.40
  YS02001633YS02163601 CONDUIT    145.07     0  02:10      0.38    0.15    0.49
  YS02001641YS02001644 CONDUIT    145.39     0  02:12      0.40    0.47    0.47
  YS02001644YS02001647 CONDUIT    171.54     0  02:10      0.73    0.10    0.34
  YS02001647YS02001649 CONDUIT    171.55     0  02:11      1.35    0.09    0.22
  YS02001649YS02001757 CONDUIT    194.18     0  02:10      1.42    0.12    0.23
  YS02001652YS02001649 CONDUIT     23.16     0  02:06      0.73    0.01    0.15
  YS02001655YS02001652 CONDUIT     23.16     0  02:06      0.87    0.01    0.07
  YS02001658YS02001655 CONDUIT     23.01     0  02:06      0.91    0.01    0.07
  YS02001661YS02001658 CONDUIT     23.02     0  02:05      0.98    0.01    0.07
  YS02001664YS02001661 CONDUIT     23.02     0  02:05      0.57    0.01    0.10
  YS02001745YS02001748 CONDUIT     15.60     0  01:35      0.91    0.01    0.06
  YS02001748YS02001751 CONDUIT     15.65     0  01:35      0.76    0.01    0.06
  YS02001751YS02001754 CONDUIT     15.65     0  01:36      0.78    0.01    0.06
  YS02001754YS02001757 CONDUIT     15.91     0  01:36      0.44    0.01    0.14
  YS02001757CaochengTiaoxuchi CONDUIT    265.89     0  02:09      0.87    0.12    0.43
  YS02001759YS02001757 CONDUIT     56.52     0  02:06      0.76    0.04    0.18
  YS02001762YS02001759 CONDUIT     34.91     0  02:08      0.54    0.04    0.14
  YS02001765YS02001762 CONDUIT     34.91     0  02:08      0.58    0.03    0.13
  YS02001767YS02001765 CONDUIT     34.91     0  02:07      0.56    0.04    0.13
  YS02001770YS02001767 CONDUIT     34.39     0  02:06      0.43    0.14    0.16
  YS02001774YS02001770 CONDUIT      6.17     0  01:19      0.22    0.00    0.20
  YS02001779YS02001774 CONDUIT      0.01     0  00:03      0.01    0.00    0.13
  YS02001783YS02001784 CONDUIT    103.63     0  02:09      0.86    0.14    0.29
  YS02001784YS02001785 CONDUIT    104.48     0  02:09      0.87    0.24    0.29
  YS02001786YS02001788 CONDUIT    104.45     0  02:09      1.23    0.20    0.23
  YS02001788YS02001790 CONDUIT    104.49     0  02:10      1.38    0.08    0.21
  YS02001790YS02001791 CONDUIT    104.61     0  02:10      1.57    0.11    0.19
  YS02001791YS02001793 CONDUIT    104.60     0  02:10      3.13    0.04    0.18
  YS02001793JiankangQianchi CONDUIT    299.30     0  03:00      0.67    0.02    0.59
  YS02001882YS02001884 CONDUIT      3.81     0  01:40      0.10    0.00    0.27
  YS02001884YS02001887 CONDUIT      8.39     0  01:40      0.07    0.01    0.37
  YS02001887YS02001890 CONDUIT     26.07     0  02:04      0.10    0.04    0.42
  YS02001890YS02001895 CONDUIT     24.91     0  02:07      0.11    0.01    0.34
  YS02001895YS02001898 CONDUIT     25.36     0  02:07      0.33    0.04    0.21
  YS02001898YS02001901 CONDUIT     26.88     0  02:08      0.15    0.02    0.29
  YS02001901YS02001904 CONDUIT     25.51     0  02:08      0.31    0.04    0.35
  YS02001904YS02001907 CONDUIT     27.37     0  02:11      0.09    0.01    0.50
  YS02001907YS02006553 CONDUIT     73.20     0  02:10      0.11    0.09    0.74
  YS02001910YS02001907 CONDUIT     51.07     0  02:04      0.49    0.03    0.56
  YS02001915YS02001910 CONDUIT     51.36     0  02:07      0.55    0.03    0.35
  YS02001918YS02001915 CONDUIT     18.93     0  02:10      0.44    0.01    0.16
  YS02001920YS02001918 CONDUIT     18.94     0  02:09      0.36    0.02    0.12
  YS02001923YS02001920 CONDUIT     16.09     0  02:08      0.33    0.01    0.11
  YS02001926YS02001923 CONDUIT     16.05     0  02:08      0.39    0.02    0.10
  YS02001929YS02001926 CONDUIT     16.03     0  02:07      0.40    0.01    0.10
  YS02006553YS02006556 CONDUIT     73.49     0  02:10      0.18    0.06    0.65
  YS02006556YS02006558 CONDUIT     73.11     0  02:11      0.13    0.06    0.67
  YS02006558YS02006561 CONDUIT    103.84     0  02:08      1.70    0.23    0.27
  YS02006561YS02001783 CONDUIT    103.77     0  02:08      1.34    0.05    0.21
  YS02163301YS02001633 CONDUIT    112.65     0  02:11      0.34    0.11    0.44
  YS02163601YS02164001 CONDUIT    145.22     0  02:11      0.38    0.13    0.49
  YS02164001YS02001641 CONDUIT    145.29     0  02:11      0.41    0.20    0.46
  YSB1154YSB6556       CONDUIT     15.08     0  02:06      0.14    0.03    0.48
  YSB1171HS02004479    CONDUIT     25.80     0  02:08      0.54    0.02    0.47
  YSB1174YSB1171       CONDUIT     11.64     0  01:35      0.05    0.02    0.60
  YSB6556YSB1171       CONDUIT     15.10     0  02:08      0.06    0.02    0.59
  CC-R1                PUMP       683.00     0  00:00              1.00
  CC-R2                PUMP       683.00     0  00:00              1.00
  CC-S1                PUMP       200.00     0  00:00              1.00
  CC-S2                PUMP       200.00     0  00:00              1.00
  JK-R1                PUMP      1000.00     0  00:00              1.00
  JK-R2                PUMP      1000.00     0  00:00              1.00
  JK-S                 PUMP       300.00     0  00:00              1.00
  XR-1                 PUMP        95.00     0  00:00              1.00
  XR-2                 PUMP        95.00     0  00:00              1.00
  XR-3                 PUMP        95.00     0  00:00              1.00
  XR-4                 PUMP        95.00     0  00:00              1.00
  
  
  ***************************
  Flow Classification Summary
  ***************************
  
  -------------------------------------------------------------------------------------
                      Adjusted    ---------- Fraction of Time in Flow Class ---------- 
                       /Actual         Up    Down  Sub   Sup   Up    Down  Norm  Inlet 
  Conduit               Length    Dry  Dry   Dry   Crit  Crit  Crit  Crit  Ltd   Ctrl  
  -------------------------------------------------------------------------------------
  1                       1.00   0.00  0.00  0.00  0.00  1.00  0.00  0.00  0.19  0.00
  HS02004478WS02006287    1.00   0.15  0.00  0.00  0.68  0.17  0.00  0.00  0.70  0.00
  HS02004479HS02004480    1.00   0.03  0.00  0.00  0.97  0.00  0.00  0.00  0.11  0.00
  HS02004480HS02004478    1.00   0.12  0.00  0.00  0.60  0.00  0.00  0.28  0.00  0.00
  HS02004770HS02004777    1.00   0.00  0.11  0.00  0.89  0.00  0.00  0.00  0.03  0.00
  HS02004777HS02004785    1.00   0.00  0.00  0.00  1.00  0.00  0.00  0.00  0.12  0.00
  HS02004785HS02004788    1.00   0.00  0.00  0.00  1.00  0.00  0.00  0.00  0.00  0.00
  HS02004788HS02004792    1.00   0.00  0.00  0.00  1.00  0.00  0.00  0.00  0.98  0.00
  HS02004792HS02004799    1.00   0.00  0.00  0.00  0.99  0.01  0.00  0.00  0.98  0.00
  HS02004799HS02004480    1.00   0.00  0.02  0.00  0.85  0.00  0.12  0.00  0.00  0.00
  HS02004802HS02004478    1.00   0.12  0.01  0.00  0.87  0.00  0.00  0.00  0.03  0.00
  HS02004807HS02004802    1.00   0.11  0.00  0.00  0.86  0.00  0.00  0.02  0.00  0.00
  HS02004817HS02004807    1.00   0.00  0.11  0.00  0.89  0.00  0.00  0.00  0.01  0.00
  HS02004817HS02004824    1.00   0.00  0.00  0.00  1.00  0.00  0.00  0.00  1.00  0.00
  HS02004824HS02004830    1.00   0.00  0.00  0.00  1.00  0.00  0.00  0.00  0.00  0.00
  HS02004830HS02004837    1.00   0.00  0.00  0.00  1.00  0.00  0.00  0.00  0.99  0.00
  HS02004837HS02004842    1.00   0.00  0.00  0.00  1.00  0.00  0.00  0.00  0.11  0.00
  HS02004842HS02004848    1.00   0.00  0.11  0.00  0.89  0.00  0.00  0.00  0.61  0.00
  HS02004848HS02004852    1.00   0.11  0.00  0.00  0.89  0.00  0.00  0.00  0.77  0.00
  HS02004852HS02004856    1.00   0.11  0.01  0.00  0.87  0.00  0.00  0.00  0.86  0.00
  HS02004856HS02004862    1.00   0.00  0.16  0.00  0.84  0.00  0.00  0.00  0.83  0.00
  HS02004862HS02004870    1.00   0.00  0.00  0.00  1.00  0.00  0.00  0.00  0.04  0.00
  HS02004870HS02004876    1.00   0.00  0.00  0.00  0.99  0.01  0.00  0.00  0.95  0.00
  HS02004876HS02004881    1.00   0.01  0.00  0.00  0.99  0.00  0.00  0.00  0.00  0.00
  HS02004881HS02006253    1.00   0.03  0.01  0.00  0.00  0.00  0.00  0.96  0.00  0.00
  HS02004901HS02004770    1.00   0.11  0.00  0.00  0.89  0.00  0.00  0.00  0.00  0.00
  WS02001211WS02001212    1.00   0.00  0.02  0.00  0.98  0.00  0.00  0.00  0.00  0.00
  WS02001212WS02001213    1.00   0.02  0.00  0.00  0.17  0.00  0.81  0.00  0.00  0.00
  WS02001213WS02003059    1.00   0.00  0.00  0.00  1.00  0.00  0.00  0.00  0.00  0.00
  WS02003059WS02003060    1.00   0.00  0.00  0.00  1.00  0.00  0.00  0.00  0.03  0.00
  WS02003060WS02003069    1.00   0.00  0.00  0.00  0.99  0.01  0.00  0.00  0.07  0.00
  WS02003066WSF200        1.00   0.09  0.00  0.00  0.00  0.91  0.00  0.00  0.89  0.00
  WS02003067WS02003066    1.00   0.07  0.01  0.00  0.92  0.00  0.00  0.00  0.00  0.00
  WS02003069WS02003072    1.00   0.00  0.00  0.00  1.00  0.00  0.00  0.00  0.74  0.00
  WS02003072WS02003073    1.00   0.00  0.00  0.00  0.00  0.00  0.00  1.00  0.00  0.00
  WS02004138WS02004139    1.00   0.00  0.00  0.00  0.98  0.01  0.00  0.01  0.98  0.00
  WS02004139WS02001211    1.00   0.00  0.00  0.00  1.00  0.00  0.00  0.00  0.00  0.00
  WS02004401WS02004402    1.00   0.02  0.00  0.00  0.98  0.00  0.00  0.00  0.00  0.00
  WS02004402WS02004403    1.00   0.02  0.00  0.00  0.98  0.00  0.00  0.00  0.00  0.00
  WS02004403WS02004404    1.00   0.00  0.02  0.00  0.98  0.00  0.00  0.00  0.00  0.00
  WS02004404WS02004405    1.00   0.00  0.00  0.00  1.00  0.00  0.00  0.00  0.00  0.00
  WS02004405WS02004406    1.00   0.00  0.00  0.00  1.00  0.00  0.00  0.00  0.00  0.00
  WS02004406WS02004407    1.00   0.00  0.04  0.00  0.96  0.00  0.00  0.00  0.00  0.00
  WS02004407WS02004409    1.00   0.04  0.00  0.00  0.95  0.01  0.00  0.00  0.95  0.00
  WS02004409WS02004410    1.00   0.04  0.00  0.00  0.96  0.00  0.00  0.00  0.00  0.00
  WS02004410WS02004411    1.00   0.04  0.00  0.00  0.96  0.00  0.00  0.00  0.00  0.00
  WS02004411WS02004412    1.00   0.04  0.00  0.00  0.96  0.00  0.00  0.00  0.00  0.00
  WS02004412WS02004413    1.00   0.04  0.00  0.00  0.96  0.00  0.00  0.00  0.01  0.00
  WS02004413WS02003067    1.00   0.04  0.03  0.00  0.00  0.00  0.93  0.00  0.00  0.00
  WS02006109WS02006110    1.00   0.00  0.00  0.00  0.99  0.00  0.01  0.00  0.00  0.00
  WS02006110WS02006113    1.00   0.00  0.01  0.00  0.99  0.00  0.00  0.00  0.00  0.00
  WS02006111WS02006112    1.00   0.01  0.00  0.00  0.98  0.00  0.00  0.00  0.98  0.00
  WS02006112WS02006115    1.00   0.01  0.00  0.00  0.98  0.00  0.00  0.00  0.00  0.00
  WS02006113WS02006111    1.00   0.01  0.00  0.00  0.00  0.99  0.00  0.00  0.11  0.00
  WS02006115WS02006116    1.00   0.02  0.00  0.00  0.98  0.00  0.00  0.01  0.00  0.00
  WS02006116WS02004401    1.00   0.02  0.00  0.00  0.98  0.00  0.00  0.00  0.00  0.00
  WS02006228WS02006109    1.00   0.00  0.00  0.00  1.00  0.00  0.00  0.00  0.00  0.00
  WS02006229WS02006228    1.00   0.00  0.00  0.00  1.00  0.00  0.00  0.00  0.00  0.00
  WS02006230WS02006229    1.00   0.00  0.00  0.00  0.99  0.00  0.00  0.01  0.00  0.00
  WS02006231WS02006230    1.00   0.00  0.00  0.00  0.18  0.00  0.82  0.00  0.00  0.00
  WS02006232WS02006231    1.00   0.00  0.00  0.00  1.00  0.00  0.00  0.00  0.00  0.00
  WS02006234WS02006232    1.00   0.00  0.00  0.00  1.00  0.00  0.00  0.00  0.00  0.00
  WS02006235WS02006234    1.00   0.00  0.00  0.00  1.00  0.00  0.00  0.00  0.00  0.00
  WS02006238WS02006235    1.00   0.00  0.00  0.00  1.00  0.00  0.00  0.00  0.00  0.00
  WS02006239WS02006238    1.00   0.00  0.00  0.00  1.00  0.00  0.00  0.00  0.00  0.00
  WS02006240WS02006239    1.00   0.00  0.00  0.00  1.00  0.00  0.00  0.00  0.00  0.00
  WS02006242WS02006240    1.00   0.00  0.00  0.00  1.00  0.00  0.00  0.00  0.00  0.00
  WS02006243WS02006242    1.00   0.00  0.00  0.00  1.00  0.00  0.00  0.00  0.95  0.00
  WS02006245WS02006243    1.00   0.00  0.00  0.00  1.00  0.00  0.00  0.00  0.00  0.00
  WS02006247WS02006245    1.00   0.00  0.00  0.00  1.00  0.00  0.00  0.00  0.00  0.00
  WS02006248WS02006247    1.00   0.00  0.00  0.00  1.00  0.00  0.00  0.00  0.73  0.00
  WS02006249WS02006248    1.00   0.00  0.00  0.00  0.38  0.00  0.62  0.00  0.00  0.00
  WS02006251WS02006249    1.00   0.00  0.00  0.00  1.00  0.00  0.00  0.00  0.20  0.00
  WS02006252WS02006251    1.00   0.00  0.00  0.00  0.00  0.00  1.00  0.00  0.00  0.00
  WS02006253WS02006251    1.00   0.00  0.00  0.00  1.00  0.00  0.00  0.00  0.00  0.00
  WS02006256WS02006235    1.00   0.00  0.00  0.00  1.00  0.00  0.00  0.00  0.00  0.00
  WS02006280WS02006229    1.00   0.13  0.00  0.00  0.00  0.00  0.00  0.87  0.00  0.00
  WS02006284WS02006280    1.00   0.13  0.00  0.00  0.00  0.00  0.00  0.87  0.00  0.00
  WS02006287WS02006284    1.00   0.09  0.06  0.00  0.58  0.27  0.00  0.00  0.71  0.00
  WSF200WS02003060        1.00   0.00  0.09  0.00  0.90  0.02  0.00  0.00  0.71  0.00
  YS02001580YS02001583    1.00   1.00  0.00  0.00  0.00  0.00  0.00  0.00  0.00  0.00
  YS02001583YS02001586    1.00   0.56  0.44  0.00  0.00  0.00  0.00  0.00  0.00  0.00
  YS02001586YS02001590    1.00   0.11  0.00  0.00  0.27  0.05  0.00  0.57  0.35  0.00
  YS02001590YS02001593    1.00   0.11  0.01  0.00  0.00  0.00  0.88  0.00  0.00  0.00
  YS02001593YS02001596    1.00   0.12  0.00  0.00  0.00  0.00  0.00  0.88  0.00  0.00
  YS02001596YS02001600    1.00   0.12  0.00  0.00  0.00  0.00  0.00  0.88  0.00  0.00
  YS02001600YS02001601    1.00   0.12  0.01  0.00  0.87  0.00  0.00  0.00  0.72  0.00
  YS02001601YS02001602    1.00   0.11  0.01  0.00  0.88  0.00  0.00  0.00  0.00  0.00
  YS02001602YS02001605    1.00   0.12  0.00  0.00  0.88  0.00  0.00  0.00  0.00  0.00
  YS02001605YS02001607    1.00   0.13  0.00  0.00  0.87  0.00  0.00  0.00  0.00  0.00
  YS02001607YS02001610    1.00   0.12  0.01  0.00  0.87  0.00  0.00  0.00  0.01  0.00
  YS02001610YS02001613    1.00   0.12  0.00  0.00  0.88  0.00  0.00  0.00  0.00  0.00
  YS02001613YS02001616    1.00   0.11  0.00  0.00  0.89  0.00  0.00  0.00  0.00  0.00
  YS02001616YS02001619    1.00   0.11  0.00  0.00  0.89  0.00  0.00  0.00  0.00  0.00
  YS02001619YS02001622    1.00   0.11  0.00  0.00  0.89  0.00  0.00  0.00  0.40  0.00
  YS02001622YS02001625    1.00   0.11  0.00  0.00  0.89  0.00  0.00  0.00  0.05  0.00
  YS02001625YS02001629    1.00   0.12  0.06  0.00  0.00  0.00  0.83  0.00  0.00  0.00
  YS02001629YS02163301    1.00   0.15  0.01  0.00  0.84  0.00  0.00  0.00  0.00  0.00
  YS02001633YS02163601    1.00   0.00  0.00  0.00  1.00  0.00  0.00  0.00  0.15  0.00
  YS02001641YS02001644    1.00   0.00  0.00  0.00  1.00  0.00  0.00  0.00  0.00  0.00
  YS02001644YS02001647    1.00   0.00  0.17  0.00  0.83  0.00  0.00  0.00  0.00  0.00
  YS02001647YS02001649    1.00   0.00  0.17  0.00  0.51  0.32  0.00  0.00  0.64  0.00
  YS02001649YS02001757    1.00   0.00  0.00  0.00  0.66  0.34  0.00  0.00  0.68  0.00
  YS02001652YS02001649    1.00   0.00  0.00  0.00  0.96  0.04  0.00  0.00  0.96  0.00
  YS02001655YS02001652    1.00   0.00  0.00  0.00  0.00  0.00  0.00  1.00  0.00  0.00
  YS02001658YS02001655    1.00   0.00  0.13  0.00  0.60  0.27  0.00  0.00  0.84  0.00
  YS02001661YS02001658    1.00   0.13  0.00  0.00  0.51  0.36  0.00  0.00  0.82  0.00
  YS02001664YS02001661    1.00   0.11  0.00  0.00  0.88  0.00  0.00  0.00  0.87  0.00
  YS02001745YS02001748    1.00   0.00  0.00  0.00  0.00  0.00  0.00  1.00  0.00  0.00
  YS02001748YS02001751    1.00   0.00  0.00  0.00  0.75  0.25  0.00  0.00  0.75  0.00
  YS02001751YS02001754    1.00   0.00  0.00  0.00  0.00  0.00  0.00  1.00  0.00  0.00
  YS02001754YS02001757    1.00   0.00  0.00  0.00  1.00  0.00  0.00  0.00  1.00  0.00
  YS02001757CaochengTiaoxuchi    1.00   0.00  0.00  0.00  1.00  0.00  0.00  0.00  1.00  0.00
  YS02001759YS02001757    1.00   0.00  0.00  0.00  1.00  0.00  0.00  0.00  0.87  0.00
  YS02001762YS02001759    1.00   0.00  0.00  0.00  1.00  0.00  0.00  0.00  0.04  0.00
  YS02001765YS02001762    1.00   0.00  0.00  0.00  1.00  0.00  0.00  0.00  0.84  0.00
  YS02001767YS02001765    1.00   0.00  0.00  0.00  1.00  0.00  0.00  0.00  0.00  0.00
  YS02001770YS02001767    1.00   0.00  0.00  0.00  1.00  0.00  0.00  0.00  0.00  0.00
  YS02001774YS02001770    1.00   0.00  0.12  0.00  0.56  0.00  0.32  0.00  0.03  0.00
  YS02001779YS02001774    1.00   0.00  0.00  0.00  1.00  0.00  0.00  0.00  0.99  0.00
  YS02001783YS02001784    1.00   0.00  0.18  0.00  0.82  0.00  0.00  0.00  0.61  0.00
  YS02001784YS02001785    1.00   0.00  0.00  0.00  1.00  0.00  0.00  0.00  0.18  0.00
  YS02001786YS02001788    1.00   0.00  0.00  0.00  0.81  0.19  0.00  0.00  0.00  0.00
  YS02001788YS02001790    1.00   0.00  0.00  0.00  0.19  0.81  0.00  0.00  0.99  0.00
  YS02001790YS02001791    1.00   0.00  0.00  0.00  0.01  0.99  0.00  0.00  0.14  0.00
  YS02001791YS02001793    1.00   0.00  0.00  0.00  0.00  1.00  0.00  0.00  0.01  0.00
  YS02001793JiankangQianchi    1.00   0.00  0.00  0.00  1.00  0.00  0.00  0.00  0.98  0.00
  YS02001882YS02001884    1.00   0.14  0.01  0.00  0.85  0.00  0.00  0.00  0.00  0.00
  YS02001884YS02001887    1.00   0.05  0.05  0.00  0.90  0.00  0.00  0.00  0.00  0.00
  YS02001887YS02001890    1.00   0.00  0.00  0.00  0.98  0.00  0.02  0.00  0.00  0.00
  YS02001890YS02001895    1.00   0.00  0.16  0.00  0.84  0.00  0.00  0.00  0.00  0.00
  YS02001895YS02001898    1.00   0.16  0.00  0.00  0.82  0.00  0.02  0.00  0.00  0.00
  YS02001898YS02001901    1.00   0.16  0.00  0.00  0.84  0.00  0.00  0.00  0.02  0.00
  YS02001901YS02001904    1.00   0.16  0.00  0.00  0.84  0.00  0.00  0.00  0.00  0.00
  YS02001904YS02001907    1.00   0.00  0.16  0.00  0.84  0.00  0.00  0.00  0.00  0.00
  YS02001907YS02006553    1.00   0.00  0.01  0.00  0.98  0.00  0.00  0.00  0.00  0.00
  YS02001910YS02001907    1.00   0.00  0.00  0.00  0.98  0.00  0.00  0.02  0.12  0.00
  YS02001915YS02001910    1.00   0.00  0.00  0.00  0.96  0.04  0.00  0.00  0.17  0.00
  YS02001918YS02001915    1.00   0.00  0.00  0.00  0.98  0.01  0.00  0.00  0.87  0.00
  YS02001920YS02001918    1.00   0.00  0.00  0.00  1.00  0.00  0.00  0.00  0.00  0.00
  YS02001923YS02001920    1.00   0.00  0.00  0.00  1.00  0.00  0.00  0.00  1.00  0.00
  YS02001926YS02001923    1.00   0.00  0.06  0.00  0.00  0.00  0.94  0.00  0.00  0.00
  YS02001929YS02001926    1.00   0.00  0.11  0.00  0.89  0.00  0.00  0.00  0.87  0.00
  YS02006553YS02006556    1.00   0.01  0.00  0.00  0.99  0.00  0.00  0.00  0.03  0.00
  YS02006556YS02006558    1.00   0.00  0.00  0.00  1.00  0.00  0.00  0.00  0.00  0.00
  YS02006558YS02006561    1.00   0.18  0.00  0.00  0.00  0.82  0.00  0.00  0.24  0.00
  YS02006561YS02001783    1.00   0.18  0.00  0.00  0.00  0.82  0.00  0.00  0.81  0.00
  YS02163301YS02001633    1.00   0.00  0.14  0.00  0.86  0.00  0.00  0.00  0.00  0.00
  YS02163601YS02164001    1.00   0.00  0.07  0.00  0.93  0.00  0.00  0.00  0.00  0.00
  YS02164001YS02001641    1.00   0.00  0.06  0.00  0.93  0.00  0.00  0.00  0.05  0.00
  YSB1154YSB6556          1.00   0.11  0.00  0.00  0.89  0.00  0.00  0.00  0.02  0.00
  YSB1171HS02004479       1.00   0.03  0.00  0.00  0.96  0.00  0.00  0.01  0.10  0.00
  YSB1174YSB1171          1.00   0.04  0.04  0.00  0.92  0.00  0.00  0.00  0.00  0.00
  YSB6556YSB1171          1.00   0.03  0.08  0.00  0.89  0.00  0.00  0.00  0.00  0.00
  
  
  *************************
  Conduit Surcharge Summary
  *************************
  
  ----------------------------------------------------------------------------
                                                           Hours        Hours 
                         --------- Hours Full --------   Above Full   Capacity
  Conduit                Both Ends  Upstream  Dnstream   Normal Flow   Limited
  ----------------------------------------------------------------------------
  WS02003072WS02003073        0.01      0.01      0.01      1.40         0.01
  WS02004404WS02004405        0.01      0.01      0.01      2.43         0.01
  WS02006111WS02006112        0.01      0.01      0.96      0.01         0.01
  WS02006228WS02006109        0.01      0.01      0.01      1.64         0.01
  WS02006229WS02006228        0.01      0.01      0.01      0.89         0.01
  WS02006230WS02006229        0.01      0.01      0.01      7.14         0.01
  WS02006231WS02006230        0.01      0.01      0.01      1.95         0.01
  WS02006235WS02006234        0.01      0.01      0.01      0.88         0.01
  WS02006239WS02006238        0.01      0.01      0.01      0.01         0.01
  WS02006240WS02006239        0.01      0.01      0.01      0.01         0.01
  WS02006242WS02006240        0.01      0.01      0.01      0.05         0.01
  WS02006245WS02006243        0.01      0.01      0.01      0.04         0.01
  WS02006247WS02006245        0.01      0.01      0.01      0.09         0.01
  WS02006249WS02006248        0.01      0.01      0.01      0.08         0.01
  WS02006251WS02006249        0.01      0.01      0.01      0.05         0.01
  WS02006252WS02006251        0.08      0.08      0.08      0.08         0.01
  WS02006256WS02006235        1.48      1.48      7.97      0.09         0.01
  YS02001602YS02001605        0.01      0.01      0.01      1.48         0.01
  YS02001793JiankangQianchi        0.01      0.01      7.64      0.01         0.01
  
  
  ***************
  Pumping Summary
  ***************
  
  ---------------------------------------------------------------------------------------------------------
                                                  Min       Avg       Max     Total     Power    % Time Off
                        Percent   Number of      Flow      Flow      Flow    Volume     Usage    Pump Curve
  Pump                 Utilized   Start-Ups       LPS       LPS       LPS  10^6 ltr     Kw-hr    Low   High
  ---------------------------------------------------------------------------------------------------------
  CC-R1                   20.83           6      0.00     83.71    683.00     0.594      9.95    0.0  100.0
  CC-R2                   23.96           5      0.00     81.17    683.00     0.656     10.98    0.0  100.0
  CC-S1                  100.00           1      0.00     20.79    200.00     0.630      3.97    0.0    0.0
  CC-S2                   60.42           7      0.00     21.20    200.00     0.402      2.57    0.0    0.0
  JK-R1                    0.69           4      0.00   1000.00   1000.00     0.200      2.17    0.0    0.0
  JK-R2                    0.16           1      0.00   1000.00   1000.00     0.047      0.36    0.0    0.0
  JK-S                    32.08          10      0.00     41.26    300.00     0.366      4.25    0.0    0.0
  XR-1                    97.91           2      0.00     95.00     95.00     2.679      9.64    0.0    0.0
  XR-2                    93.95           2      0.00     95.00     95.00     2.570      8.80    0.0    0.0
  XR-3                     0.00           1      0.00     95.00     95.00     0.000      0.00    0.0    0.0
  XR-4                     0.00           1      0.00     95.00     95.00     0.000      0.00    0.0    0.0
  

  Analysis begun on:  Tue Jul 11 11:10:12 2023
  Analysis ended on:  Tue Jul 11 11:10:18 2023
  Total elapsed time: 00:00:06