
  OWA STORM WATER MANAGEMENT MODEL - VERSION v5.2.3 (OWA 2023-03-28)
  ------------------------------------------------------------

  WARNING 04: minimum elevation drop used for Conduit WS02004404WS02004405
  WARNING 03: negative offset ignored for Link YS02001904YS02001907
  
  ****************
  Analysis Options
  ****************
  Flow Units ............... LPS
  Process Models:
    Rainfall/Runoff ........ YES
    RDII ................... NO
    Snowmelt ............... NO
    Groundwater ............ NO
    Flow Routing ........... YES
    Ponding Allowed ........ NO
    Water Quality .......... NO
  Infiltration Method ...... HORTON
  Flow Routing Method ...... DYNWAVE
  Surcharge Method ......... EXTRAN
  Starting Date ............ 08/28/2015 08:00:00
  Ending Date .............. 08/28/2015 16:00:00
  Antecedent Dry Days ...... 8.0
  Report Time Step ......... 00:01:00
  Wet Time Step ............ 00:01:00
  Dry Time Step ............ 00:01:00
  Routing Time Step ........ 30.00 sec
  Variable Time Step ....... YES
  Maximum Trials ........... 8
  Number of Threads ........ 1
  Head Tolerance ........... 0.001500 m
  
  
  **************************        Volume         Depth
  Runoff Quantity Continuity     hectare-m            mm
  **************************     ---------       -------
  Total Precipitation ......         3.999        66.007
  Evaporation Loss .........         0.000         0.000
  Infiltration Loss ........         0.245         4.048
  Surface Runoff ...........         3.693        60.962
  Final Storage ............         0.061         1.007
  Continuity Error (%) .....        -0.017
  
  
  **************************        Volume        Volume
  Flow Routing Continuity        hectare-m      10^6 ltr
  **************************     ---------     ---------
  Dry Weather Inflow .......         0.630         6.296
  Wet Weather Inflow .......         3.694        36.938
  Groundwater Inflow .......         0.000         0.000
  RDII Inflow ..............         0.000         0.000
  External Inflow ..........         0.105         1.045
  External Outflow .........         3.188        31.877
  Flooding Loss ............         1.621        16.209
  Evaporation Loss .........         0.000         0.000
  Exfiltration Loss ........         0.000         0.000
  Initial Stored Volume ....         0.303         3.031
  Final Stored Volume ......         0.173         1.732
  Continuity Error (%) .....        -5.302
  
  
  *************************
  Highest Continuity Errors
  *************************
  Node JK-storage (-39.28%)
  Node YS02001884 (5.11%)
  Node YS02001583 (-4.63%)
  Node CC-storage (-4.54%)
  Node HS02004842 (1.60%)
  
  
  ***************************
  Time-Step Critical Elements
  ***************************
  Link WS02006252WS02006251 (72.26%)
  Link YS02001793JiankangQianchi (10.97%)
  Link WS02006280WS02006229 (6.19%)
  Link WS02006238WS02006235 (2.23%)
  Link YS02001791YS02001793 (2.05%)
  
  
  ********************************
  Highest Flow Instability Indexes
  ********************************
  Link WS02006113WS02006111 (27)
  Link WS02006111WS02006112 (20)
  Link WS02006238WS02006235 (15)
  Link WS02004404WS02004405 (14)
  Link WS02006239WS02006238 (13)
  
  
  *********************************
  Most Frequent Nonconverging Nodes
  *********************************
  Node CC-1 (8.40%)
  Node CC-2 (8.40%)
  Node JK-1 (8.40%)
  Node JK-2 (8.40%)
  Node WSC (8.40%)
  
  
  *************************
  Routing Time Step Summary
  *************************
  Minimum Time Step           :     0.01 sec
  Average Time Step           :     1.44 sec
  Maximum Time Step           :    30.00 sec
  % of Time in Steady State   :     0.00
  Average Iterations per Step :     2.93
  % of Steps Not Converging   :     8.40
  Time Step Frequencies       :
     30.000 - 13.228 sec      :     0.01 %
     13.228 -  5.833 sec      :     0.12 %
      5.833 -  2.572 sec      :    14.04 %
      2.572 -  1.134 sec      :    33.55 %
      1.134 -  0.500 sec      :    52.28 %
  
  
  ***************************
  Subcatchment Runoff Summary
  ***************************
  
  ------------------------------------------------------------------------------------------------------------------------------
                            Total      Total      Total      Total     Imperv       Perv      Total       Total     Peak  Runoff
                           Precip      Runon       Evap      Infil     Runoff     Runoff     Runoff      Runoff   Runoff   Coeff
  Subcatchment                 mm         mm         mm         mm         mm         mm         mm    10^6 ltr      LPS
  ------------------------------------------------------------------------------------------------------------------------------
  sub0                      66.01       0.00       0.00       1.01      60.14       3.61      63.75        0.05    34.76   0.966
  sub1                      66.01       0.00       0.00       1.73      57.50       5.53      63.03        0.42   241.41   0.955
  sub10                     66.01       0.00       0.00       1.22      59.44       4.06      63.50        0.70   408.77   0.962
  sub11                     66.01       0.00       0.00       1.20      59.46       4.08      63.54        0.74   450.64   0.963
  sub12                     66.01       0.00       0.00       1.95      56.25       6.63      62.88        0.55   360.24   0.953
  sub14                     66.01       0.00       0.00       1.37      58.81       4.57      63.38        0.60   359.92   0.960
  sub15                     66.01       0.00       0.00       5.39      45.23      14.42      59.65        1.03   572.83   0.904
  sub16                     66.01       0.00       0.00       5.56      43.32      16.22      59.54        0.62   379.53   0.902
  sub17                     66.01       0.00       0.00       5.43      43.96      15.70      59.66        0.51   308.22   0.904
  sub2                      66.01       0.00       0.00       7.70      40.68      16.73      57.41        0.54   256.42   0.870
  sub22                     66.01       0.00       0.00       8.17      36.84      20.22      57.06        3.60  1929.65   0.864
  sub23                     66.01       0.00       0.00       6.66      40.72      17.77      58.49        2.79  1579.60   0.886
  sub3                      66.01       0.00       0.00       8.35      40.64      16.07      56.71        1.28   558.57   0.859
  sub4                      66.01       0.00       0.00       1.94      57.33       5.33      62.65        1.31   611.36   0.949
  sub5                      66.01       0.00       0.00       1.06      60.08       3.56      63.64        0.72   414.82   0.964
  sub60                     66.01       0.00       0.00       1.84      56.88       6.08      62.96        0.83   511.30   0.954
  sub61                     66.01       0.00       0.00       2.67      53.65       8.55      62.21        1.14   711.06   0.942
  sub62                     66.01       0.00       0.00       1.23      59.44       4.06      63.49        1.74  1005.16   0.962
  sub63                     66.01       0.00       0.00       4.94      45.89      14.21      60.10        1.36   807.16   0.911
  sub64                     66.01       0.00       0.00       2.49      54.90       7.41      62.30        1.50   831.02   0.944
  sub65                     66.01       0.00       0.00       2.16      56.17       6.42      62.59        1.72   931.33   0.948
  sub66                     66.01       0.00       0.00       6.12      45.79      13.02      58.81        2.74  1251.35   0.891
  sub67                     66.01       0.00       0.00       1.18      59.48       4.10      63.58        1.18   765.44   0.963
  sub68                     66.01       0.00       0.00       2.21      55.58       7.03      62.61        1.72  1026.22   0.949
  sub69                     66.01       0.00       0.00       1.99      55.99       7.92      63.91        2.37  1238.25   0.968
  sub7                      66.01       0.00       0.00       1.35      58.82       4.59      63.41        0.21   133.26   0.961
  sub70                     66.01       0.00       0.00       6.62      43.40      15.82      59.22        1.71   705.10   0.897
  sub71                     66.01       0.00       0.00       1.26      59.40       4.02      63.42        1.66   898.42   0.961
  sub72                     66.01       0.00       0.00       1.12      59.98       3.50      63.48        0.87   438.16   0.962
  sub8                      66.01       0.00       0.00       1.36      58.81       4.58      63.39        0.41   244.74   0.960
  sub9                      66.01       0.00       0.00       1.37      58.81       4.57      63.38        0.30   182.92   0.960
  
  
  ******************
  Node Depth Summary
  ******************
  
  ---------------------------------------------------------------------------------
                                 Average  Maximum  Maximum  Time of Max    Reported
                                   Depth    Depth      HGL   Occurrence   Max Depth
  Node                 Type       Meters   Meters   Meters  days hr:min      Meters
  ---------------------------------------------------------------------------------
  HS02004478           JUNCTION     0.21     1.59    10.81     0  02:12        1.58
  HS02004479           JUNCTION     0.28     1.73    10.93     0  02:04        1.73
  HS02004480           JUNCTION     0.25     1.68    10.92     0  02:04        1.68
  HS02004770           JUNCTION     0.25     1.42    11.25     0  02:03        1.42
  HS02004777           JUNCTION     0.28     1.48    11.28     0  02:03        1.48
  HS02004785           JUNCTION     0.17     1.49    11.39     0  02:03        1.41
  HS02004788           JUNCTION     0.14     1.42    11.32     0  02:03        1.38
  HS02004792           JUNCTION     0.19     1.60    11.12     0  02:03        1.60
  HS02004799           JUNCTION     0.30     1.76    10.97     0  02:04        1.76
  HS02004802           JUNCTION     0.31     1.80    10.93     0  02:12        1.80
  HS02004807           JUNCTION     0.28     1.92    11.09     0  02:06        1.92
  HS02004817           JUNCTION     0.58     2.44    11.29     0  02:06        2.38
  HS02004824           JUNCTION     0.16     2.01    11.41     0  02:06        1.95
  HS02004830           JUNCTION     0.16     2.03    11.50     0  02:06        1.91
  HS02004837           JUNCTION     0.13     2.04    11.62     0  02:06        1.83
  HS02004842           JUNCTION     0.43     2.22    11.49     0  02:06        2.15
  HS02004848           JUNCTION     0.11     2.07    11.67     0  02:06        1.82
  HS02004852           JUNCTION     0.12     2.12    11.63     0  02:06        1.87
  HS02004856           JUNCTION     0.18     2.07    11.50     0  02:06        1.93
  HS02004862           JUNCTION     0.13     2.00    11.38     0  02:06        1.91
  HS02004870           JUNCTION     0.12     2.02    11.31     0  02:06        1.91
  HS02004876           JUNCTION     0.17     2.12    11.15     0  02:06        2.00
  HS02004881           JUNCTION     0.11     2.15    11.18     0  02:05        1.75
  HS02004901           JUNCTION     0.26     1.42    11.24     0  02:03        1.42
  WS02001211           JUNCTION     0.63     0.81     5.65     0  02:17        0.81
  WS02001212           JUNCTION     0.37     0.57     5.64     0  02:17        0.57
  WS02001213           JUNCTION     0.59     0.87     5.63     0  02:17        0.87
  WS02003059           JUNCTION     0.65     0.94     5.63     0  02:16        0.94
  WS02003060           JUNCTION     0.38     0.69     5.62     0  02:15        0.69
  WS02003066           JUNCTION     0.23     0.46     6.01     0  02:13        0.46
  WS02003067           JUNCTION     0.55     0.89     6.21     0  02:13        0.89
  WS02003069           JUNCTION     0.43     0.78     5.36     0  02:15        0.78
  WS02003072           JUNCTION     0.49     0.81     5.18     0  02:15        0.81
  WS02003073           JUNCTION     0.29     0.52     4.58     0  02:16        0.52
  WS02004138           JUNCTION     0.13     0.14     7.39     0  00:32        0.14
  WS02004139           JUNCTION     0.57     0.75     5.66     0  02:16        0.75
  WS02004401           JUNCTION     0.77     1.88     7.88     0  02:13        1.87
  WS02004402           JUNCTION     0.79     1.82     7.78     0  02:13        1.81
  WS02004403           JUNCTION     0.80     1.74     7.67     0  02:13        1.74
  WS02004404           JUNCTION     0.87     1.75     7.60     0  02:13        1.74
  WS02004405           JUNCTION     0.86     1.70     7.55     0  02:13        1.69
  WS02004406           JUNCTION     0.85     1.59     7.42     0  02:13        1.58
  WS02004407           JUNCTION     0.26     0.94     7.26     0  02:13        0.94
  WS02004409           JUNCTION     0.54     1.40     7.17     0  02:12        1.38
  WS02004410           JUNCTION     0.54     1.30     7.02     0  02:13        1.30
  WS02004411           JUNCTION     0.55     1.21     6.89     0  02:13        1.21
  WS02004412           JUNCTION     0.55     1.11     6.75     0  02:13        1.11
  WS02004413           JUNCTION     0.69     1.15     6.62     0  02:13        1.15
  WS02006109           JUNCTION     0.95     2.64     9.26     0  02:03        2.64
  WS02006110           JUNCTION     0.90     2.40     8.98     0  02:13        2.39
  WS02006111           JUNCTION     0.40     1.76     8.47     0  02:13        1.76
  WS02006112           JUNCTION     0.98     2.68     8.56     0  00:00        2.40
  WS02006113           JUNCTION     0.48     1.84     8.73     0  02:12        1.82
  WS02006115           JUNCTION     0.68     1.98     8.12     0  02:13        1.98
  WS02006116           JUNCTION     0.76     1.97     8.01     0  02:12        1.96
  WS02006228           JUNCTION     1.00     3.03     9.68     0  02:06        3.03
  WS02006229           JUNCTION     1.00     3.25     9.94     0  02:06        3.22
  WS02006230           JUNCTION     0.93     2.65     9.39     0  01:58        2.65
  WS02006231           JUNCTION     0.66     2.19     9.31     0  02:30        2.19
  WS02006232           JUNCTION     0.76     2.18     9.22     0  01:58        2.18
  WS02006234           JUNCTION     0.65     1.96     9.12     0  01:46        1.96
  WS02006235           JUNCTION     0.66     2.00     9.16     0  01:46        2.00
  WS02006238           JUNCTION     0.68     2.15     9.29     0  01:46        2.15
  WS02006239           JUNCTION     0.63     2.03     9.24     0  01:46        2.03
  WS02006240           JUNCTION     0.58     1.89     9.18     0  01:46        1.89
  WS02006242           JUNCTION     0.62     1.55     8.82     0  01:36        1.55
  WS02006243           JUNCTION     0.51     1.48     8.90     0  01:36        1.48
  WS02006245           JUNCTION     0.50     1.56     9.05     0  01:37        1.49
  WS02006247           JUNCTION     0.51     1.47     8.97     0  01:37        1.47
  WS02006248           JUNCTION     0.45     1.10     8.69     0  01:37        1.10
  WS02006249           JUNCTION     0.48     1.09     8.69     0  01:37        1.09
  WS02006251           JUNCTION     0.55     2.21     9.88     0  02:05        2.13
  WS02006252           JUNCTION     0.39     1.50     9.74     0  02:05        1.50
  WS02006253           JUNCTION     0.62     3.33    10.98     0  02:05        3.02
  WS02006256           JUNCTION     0.96     2.35     9.28     0  00:11        2.35
  WS02006280           JUNCTION     0.27     1.77    10.04     0  02:06        1.74
  WS02006284           JUNCTION     0.53     1.96    10.36     0  02:06        1.94
  WS02006287           JUNCTION     0.27     1.74    10.69     0  02:11        1.73
  WSF200               JUNCTION     0.23     0.52     5.76     0  02:13        0.52
  YS02001580           JUNCTION     0.08     1.05     9.59     0  02:01        0.80
  YS02001583           JUNCTION     0.11     1.14     9.64     0  02:01        0.83
  YS02001586           JUNCTION     0.18     1.13     9.30     0  02:01        1.13
  YS02001590           JUNCTION     0.27     1.40     9.26     0  02:01        1.38
  YS02001593           JUNCTION     0.20     1.33     9.19     0  02:01        1.31
  YS02001596           JUNCTION     0.27     1.68     9.10     0  02:01        1.67
  YS02001600           JUNCTION     0.33     1.87     9.00     0  02:01        1.86
  YS02001601           JUNCTION     0.52     2.06     8.90     0  02:01        2.06
  YS02001602           JUNCTION     0.44     1.87     8.77     0  02:01        1.87
  YS02001605           JUNCTION     0.41     1.78     8.68     0  02:01        1.78
  YS02001607           JUNCTION     0.40     1.65     8.49     0  02:08        1.64
  YS02001610           JUNCTION     0.45     1.68     8.48     0  02:01        1.68
  YS02001613           JUNCTION     0.41     1.69     8.53     0  02:01        1.66
  YS02001616           JUNCTION     0.34     1.61     8.52     0  02:01        1.61
  YS02001619           JUNCTION     0.32     1.61     8.54     0  02:13        1.61
  YS02001622           JUNCTION     0.30     1.58     8.49     0  02:13        1.58
  YS02001625           JUNCTION     0.56     1.78     8.38     0  02:06        1.78
  YS02001629           JUNCTION     0.42     1.85     8.40     0  02:08        1.85
  YS02001633           JUNCTION     0.50     2.05     8.51     0  02:08        2.00
  YS02001641           JUNCTION     0.48     1.96     8.40     0  02:08        1.95
  YS02001644           JUNCTION     0.47     1.92     8.35     0  02:09        1.92
  YS02001647           JUNCTION     0.26     1.78     8.39     0  02:10        1.78
  YS02001649           JUNCTION     0.32     1.97     8.36     0  02:10        1.97
  YS02001652           JUNCTION     0.20     1.85     8.45     0  02:08        1.80
  YS02001655           JUNCTION     0.14     2.13     8.98     0  02:08        1.56
  YS02001658           JUNCTION     0.09     1.46     8.60     0  02:10        1.28
  YS02001661           JUNCTION     0.13     1.06     8.47     0  02:11        1.04
  YS02001664           JUNCTION     0.05     0.48     8.40     0  02:11        0.41
  YS02001745           JUNCTION     0.05     0.72     8.23     0  02:13        0.71
  YS02001748           JUNCTION     0.08     1.93     9.00     0  02:10        1.15
  YS02001751           JUNCTION     0.11     1.74     8.62     0  02:08        1.34
  YS02001754           JUNCTION     0.18     1.80     8.41     0  02:10        1.60
  YS02001757           JUNCTION     0.35     2.00     8.26     0  02:10        1.93
  YS02001759           JUNCTION     0.28     1.98     8.35     0  02:10        1.94
  YS02001762           JUNCTION     0.28     1.99     8.39     0  02:10        1.93
  YS02001765           JUNCTION     0.25     1.95     8.40     0  02:10        1.90
  YS02001767           JUNCTION     0.25     1.93     8.42     0  02:10        1.89
  YS02001770           JUNCTION     0.26     1.95     8.45     0  02:10        1.93
  YS02001774           JUNCTION     0.32     2.00     8.42     0  02:10        1.99
  YS02001779           JUNCTION     0.16     1.68     8.37     0  02:07        1.68
  YS02001783           JUNCTION     0.22     1.30     7.44     0  02:06        1.23
  YS02001784           JUNCTION     0.24     1.16     7.23     0  02:06        1.12
  YS02001786           JUNCTION     0.20     0.91     6.94     0  02:06        0.87
  YS02001788           JUNCTION     0.14     0.62     6.60     0  02:12        0.62
  YS02001790           JUNCTION     0.17     0.72     6.37     0  02:12        0.71
  YS02001791           JUNCTION     0.11     0.44     5.91     0  02:17        0.43
  YS02001793           JUNCTION     0.07     0.25     5.09     0  02:12        0.25
  YS02001882           JUNCTION     0.28     1.68     8.40     0  02:06        1.65
  YS02001884           JUNCTION     0.37     1.77     8.38     0  02:06        1.74
  YS02001887           JUNCTION     0.44     1.83     8.37     0  02:13        1.83
  YS02001890           JUNCTION     0.47     1.81     8.32     0  02:06        1.81
  YS02001895           JUNCTION     0.25     1.57     8.31     0  02:08        1.56
  YS02001898           JUNCTION     0.26     1.57     8.30     0  02:06        1.56
  YS02001901           JUNCTION     0.37     1.68     8.29     0  02:08        1.67
  YS02001904           JUNCTION     0.35     1.64     8.27     0  02:16        1.64
  YS02001907           JUNCTION     0.66     1.96     8.25     0  02:06        1.96
  YS02001910           JUNCTION     0.46     1.99     8.49     0  02:07        1.88
  YS02001915           JUNCTION     0.28     1.94     8.66     0  02:07        1.77
  YS02001918           JUNCTION     0.15     1.81     8.88     0  02:07        1.43
  YS02001920           JUNCTION     0.23     2.14     9.15     0  02:07        1.50
  YS02001923           JUNCTION     0.11     2.03     9.29     0  02:07        1.25
  YS02001926           JUNCTION     0.15     1.90     9.35     0  02:07        1.07
  YS02001929           JUNCTION     0.08     1.78     9.47     0  02:07        0.83
  YS02006553           JUNCTION     0.66     1.99     8.27     0  02:06        1.97
  YS02006556           JUNCTION     0.64     1.97     8.28     0  02:06        1.96
  YS02006558           JUNCTION     0.68     2.01     8.28     0  02:06        2.01
  YS02006561           JUNCTION     0.14     1.05     7.71     0  02:06        0.90
  YS02163301           JUNCTION     0.44     1.94     8.46     0  02:08        1.91
  YS02163601           JUNCTION     0.53     2.08     8.47     0  02:08        2.03
  YS02164001           JUNCTION     0.46     1.98     8.44     0  02:08        1.95
  YSB1154              JUNCTION     0.41     2.00    11.06     0  02:04        2.00
  YSB1171              JUNCTION     0.56     1.95    10.85     0  02:03        1.95
  YSB1174              JUNCTION     0.37     1.85    10.96     0  02:04        1.85
  YSB6556              JUNCTION     0.31     1.80    10.97     0  02:04        1.80
  CC-1                 OUTFALL      0.00     0.00     0.00     0  00:00        0.00
  CC-2                 OUTFALL      0.00     0.00     0.00     0  00:00        0.00
  JK-1                 OUTFALL      0.00     0.00     0.00     0  00:00        0.00
  JK-2                 OUTFALL      0.00     0.00     0.00     0  00:00        0.00
  WSC                  OUTFALL      0.29     0.52     1.19     0  02:16        0.52
  CC-storage           STORAGE      0.50     1.51     7.01     0  03:00        1.51
  JK-storage           STORAGE      0.07     3.00     3.80     0  00:05        3.00
  XR-storage           STORAGE      7.88     9.26     7.26     0  08:00        9.26
  
  
  *******************
  Node Inflow Summary
  *******************
  
  -------------------------------------------------------------------------------------------------
                                  Maximum  Maximum                  Lateral       Total        Flow
                                  Lateral    Total  Time of Max      Inflow      Inflow     Balance
                                   Inflow   Inflow   Occurrence      Volume      Volume       Error
  Node                 Type           LPS      LPS  days hr:min    10^6 ltr    10^6 ltr     Percent
  -------------------------------------------------------------------------------------------------
  HS02004478           JUNCTION      0.00  2304.06     0  02:12           0        9.11      -0.009
  HS02004479           JUNCTION      0.00   390.52     0  02:06           0       0.898       0.075
  HS02004480           JUNCTION      0.00  2067.33     0  02:05           0        6.81       0.029
  HS02004770           JUNCTION   1579.60  1579.60     0  02:14        2.79        3.04       0.085
  HS02004777           JUNCTION      0.03   710.62     0  02:03    0.000864           2       0.257
  HS02004785           JUNCTION      0.15   718.19     0  02:02     0.00432           2       0.019
  HS02004788           JUNCTION    574.50   850.45     0  02:03        1.07        3.07       0.006
  HS02004792           JUNCTION   1929.93  2743.28     0  02:14        3.61        6.68      -0.004
  HS02004799           JUNCTION    359.92  1725.15     0  02:04       0.604        6.11       0.045
  HS02004802           JUNCTION      0.00  1234.05     0  02:16           0        2.43       0.160
  HS02004807           JUNCTION    450.64  1485.24     0  02:14       0.739        2.53       0.159
  HS02004817           JUNCTION      0.60  1039.81     0  02:14      0.0173        1.85       0.909
  HS02004824           JUNCTION    611.41  1039.29     0  02:14        1.31        2.06       0.031
  HS02004830           JUNCTION      0.15   584.28     0  02:04     0.00432       0.976       0.109
  HS02004837           JUNCTION    415.12   772.22     0  02:06       0.884        1.33       0.039
  HS02004842           JUNCTION      0.00   776.60     0  02:06           0       0.802       1.625
  HS02004848           JUNCTION    558.57  1035.23     0  02:06        1.28        1.91      -0.031
  HS02004852           JUNCTION      0.00  1012.00     0  02:06           0        1.75      -0.025
  HS02004856           JUNCTION    182.92  1073.20     0  02:06       0.305        2.05       0.082
  HS02004862           JUNCTION    256.62  1147.08     0  02:06       0.541        2.59      -0.019
  HS02004870           JUNCTION    244.74  1227.25     0  02:05       0.405           3       0.000
  HS02004876           JUNCTION    241.41  1461.32     0  02:13       0.419        3.42       0.011
  HS02004881           JUNCTION    133.26  1594.97     0  02:13       0.214        3.63       0.005
  HS02004901           JUNCTION    379.53   642.27     0  02:13       0.624       0.976       0.156
  WS02001211           JUNCTION      7.35   207.44     0  03:00       0.212        5.44       0.612
  WS02001212           JUNCTION      0.00   213.83     0  02:59           0        5.41       0.290
  WS02001213           JUNCTION      0.00   217.06     0  02:59           0        5.39       0.332
  WS02003059           JUNCTION      0.00   223.65     0  02:58           0        5.38       0.596
  WS02003060           JUNCTION     16.53  1511.07     0  02:15       0.476          15       0.100
  WS02003066           JUNCTION      0.00  1310.93     0  02:13           0        9.16       0.017
  WS02003067           JUNCTION      0.00  1310.37     0  02:13           0        9.17       0.048
  WS02003069           JUNCTION      0.32  1510.99     0  02:15     0.00922          15       0.104
  WS02003072           JUNCTION      0.00  1510.94     0  02:16           0          15       0.141
  WS02003073           JUNCTION      1.82  1512.97     0  02:16      0.0524          15       0.146
  WS02004138           JUNCTION      0.00   190.00     0  00:29           0        5.25       0.054
  WS02004139           JUNCTION      0.32   190.32     0  00:32     0.00924        5.26       0.507
  WS02004401           JUNCTION      0.00  1310.83     0  02:13           0        9.28       0.124
  WS02004402           JUNCTION      0.00  1310.52     0  02:13           0        9.27       0.122
  WS02004403           JUNCTION      0.00  1310.47     0  02:13           0        9.26       0.119
  WS02004404           JUNCTION      0.16  1311.18     0  02:13     0.00467        9.25       0.097
  WS02004405           JUNCTION      0.04  1312.13     0  02:13      0.0011        9.25       0.141
  WS02004406           JUNCTION      0.00  1311.68     0  02:13           0        9.23       0.236
  WS02004407           JUNCTION      0.00  1311.56     0  02:13           0        9.21       0.017
  WS02004409           JUNCTION      0.00  1310.24     0  02:13           0         9.2       0.037
  WS02004410           JUNCTION      0.00  1310.47     0  02:13           0         9.2       0.055
  WS02004411           JUNCTION      0.00  1310.55     0  02:13           0        9.19       0.067
  WS02004412           JUNCTION      0.00  1310.49     0  02:13           0        9.19       0.090
  WS02004413           JUNCTION      0.00  1310.30     0  02:14           0        9.18       0.154
  WS02006109           JUNCTION      1.23  1308.01     0  00:00      0.0354        9.02       0.132
  WS02006110           JUNCTION      0.00  1123.80     0  02:30           0        8.72      -0.403
  WS02006111           JUNCTION      0.00  1176.04     0  00:00           0        8.75      -0.430
  WS02006112           JUNCTION    308.22  2307.30     0  00:00       0.512         9.3      -0.002
  WS02006113           JUNCTION      0.00  1123.67     0  02:30           0        8.71      -0.519
  WS02006115           JUNCTION      0.00  2152.75     0  00:00           0        9.28       0.050
  WS02006116           JUNCTION      0.00  1310.53     0  02:13           0        9.28       0.032
  WS02006228           JUNCTION      0.00  1288.21     0  02:12           0        8.97       0.074
  WS02006229           JUNCTION      0.00  2304.63     0  02:12           0        11.4       0.093
  WS02006230           JUNCTION     10.28  1026.23     0  02:11       0.296        4.79       0.120
  WS02006231           JUNCTION      0.00   453.45     0  02:20           0        3.52      -0.136
  WS02006232           JUNCTION      0.00   453.29     0  02:20           0        3.52       0.147
  WS02006234           JUNCTION      0.00   453.21     0  02:06           0        3.52      -0.075
  WS02006235           JUNCTION      0.00   420.05     0  02:15           0        3.54       0.127
  WS02006238           JUNCTION      0.00   415.61     0  02:31           0        3.21      -0.082
  WS02006239           JUNCTION      0.00   415.15     0  02:31           0        3.21      -0.082
  WS02006240           JUNCTION      0.00   414.96     0  02:32           0        3.21       0.040
  WS02006242           JUNCTION      0.00   414.97     0  02:32           0        3.21       0.069
  WS02006243           JUNCTION      0.00   310.54     0  03:12           0         2.8       0.028
  WS02006245           JUNCTION      0.00   310.57     0  03:12           0         2.8       0.266
  WS02006247           JUNCTION      0.00   310.57     0  03:12           0        2.81       0.046
  WS02006248           JUNCTION      0.00   339.59     0  01:56           0        3.09      -0.018
  WS02006249           JUNCTION      0.00  1361.77     0  02:13           0        5.87       0.108
  WS02006251           JUNCTION      0.08  1630.27     0  02:13     0.00222           6       0.017
  WS02006252           JUNCTION      0.00   469.53     0  02:13           0        2.58      -0.346
  WS02006253           JUNCTION     34.76  1630.11     0  02:13      0.0516         3.7       0.009
  WS02006256           JUNCTION      0.00   300.00     0  01:35           0        1.19      -0.030
  WS02006280           JUNCTION      0.00  2304.03     0  02:12           0        9.09       0.005
  WS02006284           JUNCTION      0.10  2304.08     0  02:12     0.00275        9.09       0.003
  WS02006287           JUNCTION      0.00  2305.39     0  02:12           0        9.09       0.008
  WSF200               JUNCTION      0.00  1311.11     0  02:13           0        9.16       0.009
  YS02001580           JUNCTION      0.00    76.04     0  02:01           0     0.00407       1.158
  YS02001583           JUNCTION      0.00   131.07     0  02:01           0      0.0153      -4.424
  YS02001586           JUNCTION    705.10   705.14     0  02:15        1.71        1.72       0.055
  YS02001590           JUNCTION      0.00   318.36     0  02:30           0        1.38      -0.034
  YS02001593           JUNCTION      0.00   318.16     0  02:30           0        1.38       0.003
  YS02001596           JUNCTION      0.00   318.01     0  02:30           0        1.38      -0.007
  YS02001600           JUNCTION      0.00   318.36     0  02:30           0        1.38       0.014
  YS02001601           JUNCTION   1238.25  1555.86     0  02:14        2.37        3.75       0.016
  YS02001602           JUNCTION      0.00   495.31     0  02:41           0        2.41       0.020
  YS02001605           JUNCTION      0.00   495.23     0  02:41           0         2.3       0.017
  YS02001607           JUNCTION      0.00   495.32     0  02:41           0         2.3       0.084
  YS02001610           JUNCTION      0.00   675.38     0  02:15           0        2.49       0.082
  YS02001613           JUNCTION      0.00   500.17     0  02:00           0        2.07       0.076
  YS02001616           JUNCTION      0.00   503.99     0  02:00           0        2.07       0.021
  YS02001619           JUNCTION   1251.35  1251.35     0  02:15        2.74        4.62       0.000
  YS02001622           JUNCTION      0.00   930.56     0  02:06           0        4.43       0.002
  YS02001625           JUNCTION      0.00  1294.61     0  02:14           0        4.58       0.187
  YS02001629           JUNCTION      0.00   930.75     0  02:06           0        3.83       0.015
  YS02001633           JUNCTION    931.53  1374.54     0  02:06        1.73        5.39       0.062
  YS02001641           JUNCTION      0.00  1373.31     0  02:06           0        5.23       0.052
  YS02001644           JUNCTION    831.06  1772.10     0  02:06         1.5        6.72       0.048
  YS02001647           JUNCTION      0.00  1772.16     0  02:06           0        6.51       0.004
  YS02001649           JUNCTION      0.00  2037.26     0  02:07           0        7.88       0.003
  YS02001652           JUNCTION      0.00   832.98     0  02:14           0        1.37      -0.080
  YS02001655           JUNCTION      0.15   833.52     0  02:14     0.00443        1.37       0.038
  YS02001658           JUNCTION      0.00   832.86     0  02:14           0        1.36      -0.013
  YS02001661           JUNCTION      0.00   892.74     0  02:13           0        1.36       0.008
  YS02001664           JUNCTION    807.16   807.16     0  02:14        1.36        1.36      -0.002
  YS02001745           JUNCTION    511.31   511.31     0  02:13       0.828       0.828       0.151
  YS02001748           JUNCTION      0.04   561.90     0  02:10      0.0013       0.828      -0.208
  YS02001751           JUNCTION      0.01   528.79     0  02:13    0.000317       0.832       0.086
  YS02001754           JUNCTION      0.26   529.05     0  02:13     0.00749        0.85      -0.118
  YS02001757           JUNCTION      0.00  3490.60     0  02:13           0        11.6       0.028
  YS02001759           JUNCTION    711.10  1414.71     0  02:13        1.14        2.83      -0.009
  YS02001762           JUNCTION      0.00   825.51     0  02:17           0        1.69      -0.001
  YS02001765           JUNCTION      0.00   824.11     0  02:17           0        1.68       0.004
  YS02001767           JUNCTION      0.54   823.44     0  02:17      0.0154        1.68       0.003
  YS02001770           JUNCTION   1005.31  1005.31     0  02:14        1.74        1.79      -0.011
  YS02001774           JUNCTION      0.00   318.90     0  02:13           0       0.144       0.748
  YS02001779           JUNCTION      0.01   318.63     0  02:13    0.000144      0.0986      -0.386
  YS02001783           JUNCTION      0.00  1163.41     0  02:11           0        4.25       0.005
  YS02001784           JUNCTION      1.06  1164.56     0  02:11      0.0305        4.28       0.012
  YS02001786           JUNCTION      0.06  1164.40     0  02:11     0.00162        4.28       0.015
  YS02001788           JUNCTION      0.07  1164.13     0  02:11     0.00204        4.28       0.007
  YS02001790           JUNCTION      0.15  1176.29     0  02:11     0.00446        4.28       0.010
  YS02001791           JUNCTION      0.00  1291.73     0  02:12           0        4.28      -0.011
  YS02001793           JUNCTION      0.00  1250.14     0  02:13           0        4.28       0.003
  YS02001882           JUNCTION      0.00    40.16     0  02:04           0      0.0127       5.106
  YS02001884           JUNCTION      0.00    48.35     0  02:03           0      0.0485       5.383
  YS02001887           JUNCTION    765.89   766.98     0  02:13         1.2        1.23       0.364
  YS02001890           JUNCTION      0.00   767.50     0  02:13           0        1.19       0.429
  YS02001895           JUNCTION      0.00   517.84     0  02:16           0        1.11       0.144
  YS02001898           JUNCTION      0.00   517.97     0  02:16           0        1.11       0.013
  YS02001901           JUNCTION      0.00   517.70     0  02:17           0        1.11       0.296
  YS02001904           JUNCTION      0.00   517.79     0  02:16           0        1.12       0.248
  YS02001907           JUNCTION      0.00  1866.93     0  02:14           0        3.73       0.468
  YS02001910           JUNCTION      0.00  1350.47     0  02:14           0        2.61       0.272
  YS02001915           JUNCTION    898.44  1350.26     0  02:14        1.66        2.65       0.060
  YS02001918           JUNCTION      0.00   453.56     0  02:13           0        1.01       0.013
  YS02001920           JUNCTION      2.87   453.37     0  02:13      0.0827       0.992       0.093
  YS02001923           JUNCTION      0.04   452.09     0  02:13     0.00109       0.897      -0.037
  YS02001926           JUNCTION      0.05   452.29     0  02:13      0.0015       0.881       0.013
  YS02001929           JUNCTION    438.16   438.16     0  02:14       0.873       0.874      -0.053
  YS02006553           JUNCTION      0.00   801.65     0  02:30           0        2.55       0.469
  YS02006556           JUNCTION      0.00   801.11     0  02:30           0        2.56       0.315
  YS02006558           JUNCTION   1027.10  1163.78     0  02:11        1.75        4.28       0.088
  YS02006561           JUNCTION      0.00  1163.60     0  02:11           0        4.25      -0.004
  YS02163301           JUNCTION      0.00   931.60     0  02:06           0        3.83       0.038
  YS02163601           JUNCTION      0.11  1374.45     0  02:06     0.00317        5.23       0.095
  YS02164001           JUNCTION      0.00  1374.41     0  02:06           0        5.23       0.040
  YSB1154              JUNCTION    414.82   414.82     0  02:14       0.721       0.722       0.203
  YSB1171              JUNCTION      0.00   995.31     0  02:13           0        1.38       0.433
  YSB1174              JUNCTION    360.24   360.24     0  02:13        0.55        0.55       0.229
  YSB6556              JUNCTION      0.00   414.81     0  02:13           0       0.723       0.165
  CC-1                 OUTFALL       0.00   683.00     0  00:05           0        6.83       0.000
  CC-2                 OUTFALL       0.00   683.00     0  00:05           0        5.09       0.000
  JK-1                 OUTFALL       0.00  1000.00     0  00:05           0        2.59       0.000
  JK-2                 OUTFALL       0.00  1000.00     0  01:35           0        2.39       0.000
  WSC                  OUTFALL       0.00  1513.70     0  02:16           0          15       0.000
  CC-storage           STORAGE       0.00  3489.82     0  02:13           0        13.8      -4.345
  JK-storage           STORAGE       0.00  1295.98     0  02:12           0        4.43     -28.200
  XR-storage           STORAGE     200.00   200.00     0  00:00        5.76        6.36       0.001
  
  
  **********************
  Node Surcharge Summary
  **********************
  
  Surcharging occurs when water rises above the top of the highest conduit.
  ---------------------------------------------------------------------
                                               Max. Height   Min. Depth
                                   Hours       Above Crown    Below Rim
  Node                 Type      Surcharged         Meters       Meters
  ---------------------------------------------------------------------
  HS02004478           JUNCTION        0.51          0.666        0.274
  HS02004479           JUNCTION        0.65          0.926        0.124
  HS02004480           JUNCTION        0.69          0.972        0.128
  HS02004770           JUNCTION        0.59          0.720        0.000
  HS02004777           JUNCTION        0.60          0.780        0.000
  HS02004785           JUNCTION        0.54          0.790        0.000
  HS02004788           JUNCTION        0.53          0.720        0.000
  HS02004792           JUNCTION        0.66          0.900        0.000
  HS02004799           JUNCTION        0.80          1.060        0.000
  HS02004802           JUNCTION        0.71          1.090        0.120
  HS02004807           JUNCTION        0.69          1.220        0.000
  HS02004817           JUNCTION        1.34          1.740        0.000
  HS02004824           JUNCTION        0.53          1.310        0.000
  HS02004830           JUNCTION        0.50          1.330        0.000
  HS02004837           JUNCTION        0.46          1.340        0.000
  HS02004842           JUNCTION        0.60          1.520        0.000
  HS02004848           JUNCTION        0.41          1.370        0.000
  HS02004852           JUNCTION        0.44          1.420        0.000
  HS02004856           JUNCTION        0.42          1.300        0.000
  HS02004862           JUNCTION        0.46          1.300        0.000
  HS02004870           JUNCTION        0.48          1.324        0.076
  HS02004876           JUNCTION        0.53          1.422        0.138
  HS02004881           JUNCTION        0.51          1.450        0.000
  HS02004901           JUNCTION        0.59          0.720        0.000
  WS02004401           JUNCTION        1.66          0.879        0.781
  WS02004402           JUNCTION        1.71          0.820        0.920
  WS02004403           JUNCTION        1.71          0.742        1.288
  WS02004404           JUNCTION        1.81          0.751        2.029
  WS02004405           JUNCTION        1.79          0.702        2.098
  WS02004406           JUNCTION        1.78          0.588        1.862
  WS02004409           JUNCTION        1.16          0.397        1.963
  WS02004410           JUNCTION        1.08          0.305        2.235
  WS02004411           JUNCTION        0.97          0.211        2.319
  WS02004412           JUNCTION        0.85          0.108        2.202
  WS02004413           JUNCTION        1.45          0.147        2.053
  WS02006109           JUNCTION        2.12          1.820        0.000
  WS02006110           JUNCTION        1.92          1.488        0.362
  WS02006111           JUNCTION        1.42          0.953        0.917
  WS02006112           JUNCTION        1.97          1.680        0.000
  WS02006113           JUNCTION        1.44          1.035        0.895
  WS02006115           JUNCTION        1.55          0.971        1.279
  WS02006116           JUNCTION        1.57          0.907        1.383
  WS02006228           JUNCTION        2.12          2.200        0.000
  WS02006229           JUNCTION        1.02          1.067        0.003
  WS02006230           JUNCTION        1.81          1.570        0.000
  WS02006231           JUNCTION        1.86          1.482        0.048
  WS02006232           JUNCTION        1.98          1.480        0.000
  WS02006234           JUNCTION        1.90          1.240        0.000
  WS02006235           JUNCTION        1.91          1.290        0.000
  WS02006238           JUNCTION        1.92          1.430        0.000
  WS02006239           JUNCTION        1.90          1.290        0.000
  WS02006240           JUNCTION        1.89          1.175        0.215
  WS02006242           JUNCTION        1.90          0.820        0.000
  WS02006243           JUNCTION        1.84          0.770        0.000
  WS02006245           JUNCTION        1.81          0.850        0.000
  WS02006247           JUNCTION        1.81          0.760        0.000
  WS02006248           JUNCTION        1.75          0.380        0.000
  WS02006249           JUNCTION        1.77          0.390        0.000
  WS02006251           JUNCTION        1.53          1.180        0.000
  WS02006252           JUNCTION        1.57          1.100        0.000
  WS02006253           JUNCTION        1.53          2.293        0.187
  WS02006256           JUNCTION        7.46          2.050        0.000
  WS02006280           JUNCTION        0.83          0.722        0.058
  WS02006284           JUNCTION        0.73          0.683        0.117
  WS02006287           JUNCTION        0.62          0.738        0.152
  YS02001580           JUNCTION        0.64          0.450        0.000
  YS02001583           JUNCTION        0.65          0.500        0.000
  YS02001586           JUNCTION        0.76          0.510        0.000
  YS02001590           JUNCTION        0.84          0.750        0.000
  YS02001593           JUNCTION        0.85          0.710        0.130
  YS02001596           JUNCTION        0.98          0.951        0.119
  YS02001600           JUNCTION        1.17          1.190        0.000
  YS02001601           JUNCTION        1.51          1.440        0.000
  YS02001602           JUNCTION        1.40          1.270        0.000
  YS02001605           JUNCTION        1.34          1.180        0.000
  YS02001607           JUNCTION        0.79          0.646        0.034
  YS02001610           JUNCTION        0.82          0.680        0.000
  YS02001613           JUNCTION        0.78          0.687        0.013
  YS02001616           JUNCTION        0.73          0.610        0.000
  YS02001619           JUNCTION        0.72          0.610        0.000
  YS02001622           JUNCTION        0.71          0.582        0.038
  YS02001625           JUNCTION        0.93          0.780        0.000
  YS02001629           JUNCTION        0.62          0.470        0.000
  YS02001633           JUNCTION        0.95          1.032        0.028
  YS02001641           JUNCTION        0.85          0.962        0.138
  YS02001644           JUNCTION        0.80          0.920        0.000
  YS02001647           JUNCTION        0.48          0.783        0.117
  YS02001649           JUNCTION        0.58          0.971        0.079
  YS02001652           JUNCTION        0.38          0.821        0.309
  YS02001655           JUNCTION        0.25          1.125        0.075
  YS02001658           JUNCTION        0.16          0.455        0.845
  YS02001748           JUNCTION        0.07          0.845        0.345
  YS02001751           JUNCTION        0.18          0.740        0.460
  YS02001754           JUNCTION        0.25          0.751        0.399
  YS02001757           JUNCTION        0.68          1.001        0.209
  YS02001759           JUNCTION        0.48          0.985        0.225
  YS02001762           JUNCTION        0.45          0.991        0.159
  YS02001765           JUNCTION        0.41          0.952        0.148
  YS02001767           JUNCTION        0.39          0.932        0.098
  YS02001770           JUNCTION        0.37          0.920        0.000
  YS02001774           JUNCTION        0.44          0.996        0.054
  YS02001779           JUNCTION        0.27          0.680        0.000
  YS02001783           JUNCTION        0.57          0.501        1.099
  YS02001784           JUNCTION        0.54          0.363        1.127
  YS02001786           JUNCTION        0.42          0.114        1.316
  YS02001882           JUNCTION        0.50          0.679        0.151
  YS02001884           JUNCTION        0.51          0.707        0.163
  YS02001887           JUNCTION        0.55          0.783        0.167
  YS02001890           JUNCTION        0.57          0.760        0.000
  YS02001895           JUNCTION        0.49          0.567        0.183
  YS02001898           JUNCTION        0.48          0.537        0.203
  YS02001901           JUNCTION        0.54          0.677        0.193
  YS02001904           JUNCTION        0.53          0.641        0.209
  YS02001907           JUNCTION        0.83          0.950        0.000
  YS02001910           JUNCTION        0.60          0.987        0.113
  YS02001915           JUNCTION        0.50          0.941        0.059
  YS02001918           JUNCTION        0.41          0.810        0.000
  YS02001920           JUNCTION        0.42          1.140        0.000
  YS02001923           JUNCTION        0.08          0.820        0.000
  YS02001926           JUNCTION        0.13          0.900        0.000
  YS02001929           JUNCTION        0.01          0.780        0.000
  YS02006553           JUNCTION        0.84          0.988        0.202
  YS02006556           JUNCTION        0.70          0.933        0.417
  YS02006558           JUNCTION        0.69          0.912        0.488
  YS02006561           JUNCTION        0.37          0.249        0.901
  YS02163301           JUNCTION        0.92          0.940        0.090
  YS02163601           JUNCTION        0.98          1.077        0.003
  YS02164001           JUNCTION        0.85          0.980        0.120
  YSB1154              JUNCTION        0.95          1.300        0.100
  YSB1171              JUNCTION        0.95          1.100        0.000
  YSB1174              JUNCTION        0.84          1.153        0.097
  YSB6556              JUNCTION        0.77          1.100        0.000
  
  
  *********************
  Node Flooding Summary
  *********************
  
  Flooding refers to all water that overflows a node, whether it ponds or not.
  --------------------------------------------------------------------------
                                                             Total   Maximum
                                 Maximum   Time of Max       Flood    Ponded
                        Hours       Rate    Occurrence      Volume     Depth
  Node                 Flooded       LPS   days hr:min    10^6 ltr    Meters
  --------------------------------------------------------------------------
  HS02004770              0.40   1076.49      0  02:14       0.692     0.000
  HS02004777              0.01     15.21      0  02:03       0.000     0.000
  HS02004785              0.01     28.53      0  02:03       0.000     0.000
  HS02004788              0.01    233.83      0  02:03       0.001     0.000
  HS02004792              0.39   1601.14      0  02:14       1.173     0.000
  HS02004799              0.20    213.01      0  02:12       0.086     0.000
  HS02004807              0.09    253.91      0  02:14       0.049     0.000
  HS02004817              0.01      6.34      0  02:06       0.000     0.000
  HS02004824              0.01     18.66      0  02:06       0.000     0.000
  HS02004830              0.01     20.02      0  02:06       0.000     0.000
  HS02004837              0.01     83.70      0  02:06       0.000     0.000
  HS02004842              0.01    176.17      0  02:06       0.001     0.000
  HS02004848              0.01    353.63      0  02:06       0.001     0.000
  HS02004852              0.01    278.41      0  02:06       0.000     0.000
  HS02004856              0.01     80.50      0  02:06       0.000     0.000
  HS02004862              0.01    405.78      0  02:06       0.001     0.000
  HS02004881              0.01    138.45      0  02:05       0.000     0.000
  HS02004901              0.47    642.26      0  02:13       0.722     0.000
  WS02006109              0.44    287.41      0  02:13       0.264     0.000
  WS02006112              0.01   1153.65      0  00:00       0.035     0.000
  WS02006228              0.01      1.79      0  02:06       0.000     0.000
  WS02006230              0.74    573.51      0  02:11       1.003     0.000
  WS02006232              0.19      0.67      0  02:23       0.000     0.000
  WS02006234              0.82    128.66      0  02:10       0.243     0.000
  WS02006235              0.01      0.37      0  01:46       0.000     0.000
  WS02006238              0.01      0.78      0  01:46       0.000     0.000
  WS02006239              0.01      0.35      0  01:46       0.000     0.000
  WS02006242              0.98    254.38      0  01:36       0.416     0.000
  WS02006243              0.01    139.75      0  01:36       0.000     0.000
  WS02006245              0.01     76.32      0  01:37       0.000     0.000
  WS02006247              0.01    147.75      0  01:37       0.000     0.000
  WS02006248              1.33    339.55      0  01:56       1.372     0.000
  WS02006249              1.53   1300.84      0  02:13       3.852     0.000
  WS02006251              0.01     28.64      0  02:05       0.000     0.000
  WS02006252              0.33    469.05      0  02:13       0.297     0.000
  WS02006256              0.96    297.24      0  02:45       0.608     0.000
  YS02001580              0.01     41.26      0  02:01       0.000     0.000
  YS02001583              0.01     62.05      0  02:01       0.000     0.000
  YS02001586              0.49    387.59      0  02:15       0.332     0.000
  YS02001590              0.01      6.59      0  02:01       0.000     0.000
  YS02001600              0.01      1.68      0  02:01       0.000     0.000
  YS02001601              0.68   1157.87      0  02:14       1.339     0.000
  YS02001602              0.49     61.98      0  02:20       0.100     0.000
  YS02001605              0.01      1.43      0  02:01       0.000     0.000
  YS02001610              0.43    675.04      0  02:15       0.609     0.000
  YS02001616              0.01      5.60      0  02:01       0.000     0.000
  YS02001619              0.01      0.04      0  02:13       0.000     0.000
  YS02001625              0.37   1294.42      0  02:15       0.900     0.000
  YS02001629              0.10    115.16      0  02:11       0.023     0.000
  YS02001644              0.14    638.21      0  02:13       0.198     0.000
  YS02001770              0.01      2.55      0  02:10       0.000     0.000
  YS02001779              0.12    318.61      0  02:13       0.079     0.000
  YS02001890              0.16    251.75      0  02:13       0.070     0.000
  YS02001907              0.36   1735.84      0  02:14       1.172     0.000
  YS02001918              0.01    111.89      0  02:07       0.001     0.000
  YS02001920              0.01     13.82      0  02:07       0.000     0.000
  YS02001923              0.01    137.83      0  02:07       0.000     0.000
  YS02001926              0.01     60.47      0  02:07       0.000     0.000
  YS02001929              0.01    255.60      0  02:07       0.001     0.000
  YSB1171                 0.30    995.08      0  02:13       0.581     0.000
  YSB6556                 0.01      1.86      0  02:04       0.000     0.000
  
  
  **********************
  Storage Volume Summary
  **********************
  
  ------------------------------------------------------------------------------------------------
                         Average    Avg   Evap  Exfil     Maximum    Max    Time of Max    Maximum
                          Volume   Pcnt   Pcnt   Pcnt      Volume   Pcnt     Occurrence    Outflow
  Storage Unit           1000 m   Full   Loss   Loss     1000 m   Full    days hr:min        LPS
  ------------------------------------------------------------------------------------------------
  CC-storage               1.382   21.6    0.0    0.0       4.209   65.7       0  03:00    1566.00
  JK-storage               0.003    1.2    0.0    0.0       0.151   51.7       0  00:05    2300.00
  XR-storage               0.946   65.7    0.0    0.0       1.111   77.1       0  08:00     190.00
  
  
  ***********************
  Outfall Loading Summary
  ***********************
  
  -----------------------------------------------------------
                         Flow       Avg       Max       Total
                         Freq      Flow      Flow      Volume
  Outfall Node           Pcnt       LPS       LPS    10^6 ltr
  -----------------------------------------------------------
  CC-1                  55.78    585.01    683.00       6.829
  CC-2                  73.42    384.75    683.00       5.094
  JK-1                  76.60    142.07   1000.00       2.594
  JK-2                  45.63    219.83   1000.00       2.394
  WSC                  100.00    609.06   1513.70      14.966
  -----------------------------------------------------------
  System                70.29   1940.72   3867.73      31.877
  
  
  ********************
  Link Flow Summary
  ********************
  
  -----------------------------------------------------------------------------
                                 Maximum  Time of Max   Maximum    Max/    Max/
                                  |Flow|   Occurrence   |Veloc|    Full    Full
  Link                 Type          LPS  days hr:min     m/sec    Flow   Depth
  -----------------------------------------------------------------------------
  1                    CONDUIT   1513.70     0  02:16      3.70    0.53    0.52
  HS02004478WS02006287 CONDUIT   2305.39     0  02:12      2.57    0.65    1.00
  HS02004479HS02004480 CONDUIT    389.83     0  02:06      0.56    0.38    1.00
  HS02004480HS02004478 CONDUIT   2066.61     0  02:05      2.95    8.70    1.00
  HS02004770HS02004777 CONDUIT    710.59     0  02:03      1.02    1.30    1.00
  HS02004777HS02004785 CONDUIT    718.04     0  02:02      1.08    0.88    1.00
  HS02004785HS02004788 CONDUIT    642.25     0  02:03      1.35    4.84    1.00
  HS02004788HS02004792 CONDUIT    836.83     0  02:03      1.45    0.55    1.00
  HS02004792HS02004799 CONDUIT   1575.32     0  02:04      2.25    0.96    1.00
  HS02004799HS02004480 CONDUIT   1723.39     0  02:04      2.46    2.18    1.00
  HS02004802HS02004478 CONDUIT   1233.66     0  02:16      1.76    1.09    1.00
  HS02004807HS02004802 CONDUIT   1234.05     0  02:16      1.76    2.36    1.00
  HS02004817HS02004807 CONDUIT   1039.90     0  02:14      1.49    0.62    1.00
  HS02004817HS02004824 CONDUIT   1039.21     0  02:14      1.48    0.47    1.00
  HS02004824HS02004830 CONDUIT    584.13     0  02:04      0.83    0.76    1.00
  HS02004830HS02004837 CONDUIT    572.69     0  02:04      0.90    0.57    1.00
  HS02004837HS02004842 CONDUIT    776.60     0  02:06      1.11    0.46    1.00
  HS02004842HS02004848 CONDUIT    776.80     0  02:06      1.22    0.45    1.00
  HS02004848HS02004852 CONDUIT   1012.00     0  02:06      1.57    1.14    1.00
  HS02004852HS02004856 CONDUIT    983.29     0  02:06      1.45    1.12    1.00
  HS02004856HS02004862 CONDUIT   1029.60     0  02:06      1.68    1.03    1.00
  HS02004862HS02004870 CONDUIT   1110.57     0  02:05      1.88    1.20    1.00
  HS02004870HS02004876 CONDUIT   1222.33     0  02:13      1.76    0.81    1.00
  HS02004876HS02004881 CONDUIT   1461.78     0  02:13      2.40   15.55    1.00
  HS02004881HS02006253 CONDUIT   1595.42     0  02:13      2.28    0.31    1.00
  HS02004901HS02004770 CONDUIT    265.79     0  02:27      0.38    1.00    1.00
  WS02001211WS02001212 CONDUIT    213.83     0  02:59      0.54    0.16    0.69
  WS02001212WS02001213 CONDUIT    217.06     0  02:59      1.03    0.33    0.56
  WS02001213WS02003059 CONDUIT    223.65     0  02:58      0.47    0.37    0.90
  WS02003059WS02003060 CONDUIT    230.04     0  03:17      0.65    0.15    0.81
  WS02003060WS02003069 CONDUIT   1510.67     0  02:15      2.09    0.59    0.61
  WS02003066WSF200     CONDUIT   1311.11     0  02:13      3.25    0.22    0.39
  WS02003067WS02003066 CONDUIT   1310.93     0  02:13      2.01    0.42    0.56
  WS02003069WS02003072 CONDUIT   1510.94     0  02:16      1.90    0.73    0.66
  WS02003072WS02003073 CONDUIT   1511.15     0  02:16      2.06    3.26    0.62
  WS02004138WS02004139 CONDUIT    190.00     0  00:32      2.17    0.04    0.42
  WS02004139WS02001211 CONDUIT    200.10     0  03:00      0.55    0.25    0.61
  WS02004401WS02004402 CONDUIT   1310.52     0  02:13      2.07    1.57    1.00
  WS02004402WS02004403 CONDUIT   1310.47     0  02:13      1.84    1.88    1.00
  WS02004403WS02004404 CONDUIT   1311.01     0  02:13      1.68    0.95    1.00
  WS02004404WS02004405 CONDUIT   1312.09     0  02:13      1.86   12.85    1.00
  WS02004405WS02004406 CONDUIT   1311.68     0  02:13      1.80    2.59    1.00
  WS02004406WS02004407 CONDUIT   1311.56     0  02:13      1.72    0.59    0.97
  WS02004407WS02004409 CONDUIT   1310.24     0  02:13      1.81    0.46    0.97
  WS02004409WS02004410 CONDUIT   1310.47     0  02:13      1.67    1.69    1.00
  WS02004410WS02004411 CONDUIT   1310.55     0  02:13      1.67    1.79    1.00
  WS02004411WS02004412 CONDUIT   1310.49     0  02:13      1.67    1.86    1.00
  WS02004412WS02004413 CONDUIT   1310.30     0  02:14      1.67    0.88    1.00
  WS02004413WS02003067 CONDUIT   1310.37     0  02:13      2.02    0.56    0.77
  WS02006109WS02006110 CONDUIT   1306.78     0  00:00      3.15    2.51    1.00
  WS02006110WS02006113 CONDUIT   1123.67     0  02:30      2.24    1.02    1.00
  WS02006111WS02006112 CONDUIT   2307.30     0  00:00      9.18    1.10    1.00
  WS02006112WS02006115 CONDUIT   2152.75     0  00:00      2.85    1.27    1.00
  WS02006113WS02006111 CONDUIT   1176.04     0  00:00      2.70    1.41    1.00
  WS02006115WS02006116 CONDUIT   1310.53     0  02:13      1.81    1.68    1.00
  WS02006116WS02004401 CONDUIT   1310.83     0  02:13      2.21    1.81    1.00
  WS02006228WS02006109 CONDUIT   1288.10     0  02:12      2.56    5.63    1.00
  WS02006229WS02006228 CONDUIT   1288.21     0  02:12      2.56    4.27    1.00
  WS02006230WS02006229 CONDUIT   1015.95     0  02:11      2.64   22.61    1.00
  WS02006231WS02006230 CONDUIT    453.45     0  02:20      1.29    6.88    1.00
  WS02006232WS02006231 CONDUIT    453.29     0  02:20      1.18    0.95    1.00
  WS02006234WS02006232 CONDUIT    453.21     0  02:06      1.18    0.92    1.00
  WS02006235WS02006234 CONDUIT    417.91     0  02:15      1.09    4.41    1.00
  WS02006238WS02006235 CONDUIT    415.61     0  02:31      1.23    0.93    1.00
  WS02006239WS02006238 CONDUIT    415.15     0  02:31      1.08    1.33    1.00
  WS02006240WS02006239 CONDUIT    414.96     0  02:32      1.09    1.31    1.00
  WS02006242WS02006240 CONDUIT    414.97     0  02:32      1.08    1.65    1.00
  WS02006243WS02006242 CONDUIT    310.51     0  03:12      1.14    0.66    1.00
  WS02006245WS02006243 CONDUIT    310.54     0  03:12      1.22    0.92    1.00
  WS02006247WS02006245 CONDUIT    310.57     0  03:12      1.16    2.46    1.00
  WS02006248WS02006247 CONDUIT    310.57     0  03:12      1.17    0.68    1.00
  WS02006249WS02006248 CONDUIT    312.43     0  01:37      1.16    1.71    1.00
  WS02006251WS02006249 CONDUIT   1361.77     0  02:13      3.54    3.93    1.00
  WS02006252WS02006251 CONDUIT   1298.45     0  00:05     20.66    4.77    1.00
  WS02006253WS02006251 CONDUIT   1630.19     0  02:13      4.24    4.89    1.00
  WS02006256WS02006235 CONDUIT    235.75     0  01:35      3.34    2.50    1.00
  WS02006280WS02006229 CONDUIT   2304.63     0  02:12      3.97    0.49    1.00
  WS02006284WS02006280 CONDUIT   2304.03     0  02:12      2.96    0.96    1.00
  WS02006287WS02006284 CONDUIT   2303.98     0  02:12      2.93    1.07    1.00
  WSF200WS02003060     CONDUIT   1311.56     0  02:14      2.29    0.29    0.50
  YS02001580YS02001583 CONDUIT     76.04     0  02:01      0.54    0.29    1.00
  YS02001583YS02001586 CONDUIT    131.07     0  02:01      0.54    0.20    1.00
  YS02001586YS02001590 CONDUIT    318.36     0  02:30      1.26    0.56    1.00
  YS02001590YS02001593 CONDUIT    318.16     0  02:30      1.13    2.00    1.00
  YS02001593YS02001596 CONDUIT    318.01     0  02:30      1.76    0.50    1.00
  YS02001596YS02001600 CONDUIT    318.36     0  02:30      1.25    0.62    1.00
  YS02001600YS02001601 CONDUIT    318.67     0  02:30      1.13    0.55    1.00
  YS02001601YS02001602 CONDUIT    495.31     0  02:41      1.75    1.79    1.00
  YS02001602YS02001605 CONDUIT    495.23     0  02:41      1.75   10.48    1.00
  YS02001605YS02001607 CONDUIT    495.32     0  02:41      1.75    2.72    1.00
  YS02001607YS02001610 CONDUIT    498.34     0  02:00      0.63    0.47    1.00
  YS02001610YS02001613 CONDUIT    500.17     0  02:00      0.64    0.58    1.00
  YS02001613YS02001616 CONDUIT    503.99     0  02:00      0.65    0.43    1.00
  YS02001616YS02001619 CONDUIT    499.09     0  02:01      0.66    0.87    1.00
  YS02001619YS02001622 CONDUIT    930.56     0  02:06      1.18    1.37    1.00
  YS02001622YS02001625 CONDUIT    930.52     0  02:06      1.18    0.50    1.00
  YS02001625YS02001629 CONDUIT    930.75     0  02:06      1.19    0.44    1.00
  YS02001629YS02163301 CONDUIT    931.60     0  02:06      1.19    1.15    1.00
  YS02001633YS02163601 CONDUIT   1374.34     0  02:06      1.75    1.44    1.00
  YS02001641YS02001644 CONDUIT   1372.87     0  02:06      1.75    4.44    1.00
  YS02001644YS02001647 CONDUIT   1772.16     0  02:06      2.26    1.04    1.00
  YS02001647YS02001649 CONDUIT   1785.49     0  02:06      2.31    0.94    1.00
  YS02001649YS02001757 CONDUIT   2037.90     0  02:07      2.59    1.24    1.00
  YS02001652YS02001649 CONDUIT    833.26     0  02:14      1.06    0.41    1.00
  YS02001655YS02001652 CONDUIT    832.98     0  02:14      1.24    0.40    1.00
  YS02001658YS02001655 CONDUIT    833.37     0  02:14      1.82    0.35    1.00
  YS02001661YS02001658 CONDUIT    832.86     0  02:14      2.29    0.33    1.00
  YS02001664YS02001661 CONDUIT    892.74     0  02:13      2.28    0.28    0.72
  YS02001745YS02001748 CONDUIT    561.85     0  02:10      2.14    0.22    0.86
  YS02001748YS02001751 CONDUIT    528.78     0  02:13      1.64    0.27    1.00
  YS02001751YS02001754 CONDUIT    528.79     0  02:13      1.30    0.25    1.00
  YS02001754YS02001757 CONDUIT    529.11     0  02:13      0.67    0.21    1.00
  YS02001757CaochengTiaoxuchi CONDUIT   3489.82     0  02:13      6.61    1.51    1.00
  YS02001759YS02001757 CONDUIT   1415.29     0  02:13      1.80    1.01    1.00
  YS02001762YS02001759 CONDUIT    825.18     0  02:17      1.05    0.95    1.00
  YS02001765YS02001762 CONDUIT    825.51     0  02:17      1.05    0.77    1.00
  YS02001767YS02001765 CONDUIT    824.11     0  02:17      1.05    1.04    1.00
  YS02001770YS02001767 CONDUIT    822.90     0  02:17      1.05    3.26    1.00
  YS02001774YS02001770 CONDUIT    318.90     0  02:13      0.41    0.20    1.00
  YS02001779YS02001774 CONDUIT    318.62     0  02:13      0.41    0.16    1.00
  YS02001783YS02001784 CONDUIT   1163.50     0  02:11      2.31    1.60    1.00
  YS02001784YS02001785 CONDUIT   1164.35     0  02:11      2.32    2.71    1.00
  YS02001786YS02001788 CONDUIT   1164.06     0  02:11      2.48    2.24    0.89
  YS02001788YS02001790 CONDUIT   1176.14     0  02:11      2.72    0.87    0.84
  YS02001790YS02001791 CONDUIT   1291.73     0  02:12      3.43    1.41    0.70
  YS02001791YS02001793 CONDUIT   1250.14     0  02:13      6.75    0.54    0.43
  YS02001793JiankangQianchi CONDUIT   1295.98     0  02:12     24.85    0.10    0.61
  YS02001882YS02001884 CONDUIT     40.16     0  02:04      0.14    0.05    1.00
  YS02001884YS02001887 CONDUIT     48.35     0  02:03      0.10    0.06    1.00
  YS02001887YS02001890 CONDUIT    767.50     0  02:13      0.98    1.31    1.00
  YS02001890YS02001895 CONDUIT    517.84     0  02:16      0.66    0.24    1.00
  YS02001895YS02001898 CONDUIT    517.97     0  02:16      0.66    0.90    1.00
  YS02001898YS02001901 CONDUIT    517.70     0  02:17      0.66    0.33    1.00
  YS02001901YS02001904 CONDUIT    517.79     0  02:16      0.66    0.80    1.00
  YS02001904YS02001907 CONDUIT    517.92     0  02:16      0.66    0.18    1.00
  YS02001907YS02006553 CONDUIT    801.65     0  02:30      0.89    0.94    1.00
  YS02001910YS02001907 CONDUIT   1350.47     0  02:14      1.72    0.76    1.00
  YS02001915YS02001910 CONDUIT   1350.47     0  02:14      1.72    0.67    1.00
  YS02001918YS02001915 CONDUIT    453.79     0  02:13      0.58    0.25    1.00
  YS02001920YS02001918 CONDUIT    453.56     0  02:13      0.64    0.44    1.00
  YS02001923YS02001920 CONDUIT    450.50     0  02:13      0.69    0.20    1.00
  YS02001926YS02001923 CONDUIT    452.05     0  02:13      0.94    0.65    1.00
  YS02001929YS02001926 CONDUIT    452.23     0  02:13      1.09    0.21    1.00
  YS02006553YS02006556 CONDUIT    801.11     0  02:30      1.02    0.69    1.00
  YS02006556YS02006558 CONDUIT    803.11     0  02:30      1.02    0.63    1.00
  YS02006558YS02006561 CONDUIT   1163.60     0  02:11      4.12    2.57    1.00
  YS02006561YS02001783 CONDUIT   1163.41     0  02:11      2.31    0.60    1.00
  YS02163301YS02001633 CONDUIT    930.87     0  02:06      1.19    0.88    1.00
  YS02163601YS02164001 CONDUIT   1374.41     0  02:06      1.75    1.22    1.00
  YS02164001YS02001641 CONDUIT   1373.31     0  02:06      1.75    1.88    1.00
  YSB1154YSB6556       CONDUIT    414.81     0  02:13      1.08    0.75    1.00
  YSB1171HS02004479    CONDUIT    390.52     0  02:06      0.78    0.26    1.00
  YSB1174YSB1171       CONDUIT    360.39     0  02:13      0.94    0.55    1.00
  YSB6556YSB1171       CONDUIT    414.93     0  02:13      1.08    0.43    1.00
  CC-R1                PUMP       683.00     0  00:05              1.00
  CC-R2                PUMP       683.00     0  00:05              1.00
  CC-S1                PUMP       200.00     0  01:30              1.00
  CC-S2                PUMP       200.00     0  00:05              1.00
  JK-R1                PUMP      1000.00     0  00:05              1.00
  JK-R2                PUMP      1000.00     0  01:35              1.00
  JK-S                 PUMP       300.00     0  01:35              1.00
  XR-1                 PUMP        95.00     0  00:10              1.00
  XR-2                 PUMP        95.00     0  00:29              1.00
  XR-3                 PUMP         0.00     0  00:00              0.00
  XR-4                 PUMP         0.00     0  00:00              0.00
  
  
  ***************************
  Flow Classification Summary
  ***************************
  
  -------------------------------------------------------------------------------------
                      Adjusted    ---------- Fraction of Time in Flow Class ---------- 
                       /Actual         Up    Down  Sub   Sup   Up    Down  Norm  Inlet 
  Conduit               Length    Dry  Dry   Dry   Crit  Crit  Crit  Crit  Ltd   Ctrl  
  -------------------------------------------------------------------------------------
  1                       1.00   0.00  0.00  0.00  0.00  1.00  0.00  0.00  0.52  0.00
  HS02004478WS02006287    1.00   0.16  0.00  0.00  0.67  0.18  0.00  0.00  0.58  0.00
  HS02004479HS02004480    1.00   0.04  0.00  0.00  0.96  0.00  0.00  0.00  0.11  0.00
  HS02004480HS02004478    1.00   0.13  0.00  0.00  0.62  0.00  0.00  0.25  0.00  0.00
  HS02004770HS02004777    1.00   0.00  0.13  0.00  0.87  0.00  0.00  0.00  0.02  0.00
  HS02004777HS02004785    1.00   0.00  0.00  0.00  1.00  0.00  0.00  0.00  0.11  0.00
  HS02004785HS02004788    1.00   0.00  0.00  0.00  1.00  0.00  0.00  0.00  0.00  0.00
  HS02004788HS02004792    1.00   0.00  0.00  0.00  0.99  0.01  0.00  0.00  0.90  0.00
  HS02004792HS02004799    1.00   0.00  0.00  0.00  0.99  0.01  0.00  0.00  0.85  0.00
  HS02004799HS02004480    1.00   0.00  0.03  0.00  0.84  0.00  0.12  0.00  0.00  0.00
  HS02004802HS02004478    1.00   0.13  0.01  0.00  0.86  0.00  0.00  0.00  0.02  0.00
  HS02004807HS02004802    1.00   0.13  0.00  0.00  0.85  0.00  0.00  0.02  0.00  0.00
  HS02004817HS02004807    1.00   0.00  0.13  0.00  0.87  0.00  0.00  0.00  0.01  0.00
  HS02004817HS02004824    1.00   0.00  0.00  0.00  1.00  0.00  0.00  0.00  0.81  0.00
  HS02004824HS02004830    1.00   0.00  0.00  0.00  1.00  0.00  0.00  0.00  0.01  0.00
  HS02004830HS02004837    1.00   0.00  0.00  0.00  1.00  0.00  0.00  0.00  0.87  0.00
  HS02004837HS02004842    1.00   0.00  0.00  0.00  0.99  0.01  0.00  0.00  0.11  0.00
  HS02004842HS02004848    1.00   0.00  0.13  0.00  0.87  0.00  0.00  0.00  0.55  0.00
  HS02004848HS02004852    1.00   0.13  0.00  0.00  0.87  0.00  0.00  0.00  0.70  0.00
  HS02004852HS02004856    1.00   0.13  0.01  0.00  0.86  0.00  0.00  0.00  0.66  0.00
  HS02004856HS02004862    1.00   0.00  0.16  0.00  0.84  0.00  0.00  0.00  0.74  0.00
  HS02004862HS02004870    1.00   0.00  0.00  0.00  1.00  0.00  0.00  0.00  0.03  0.00
  HS02004870HS02004876    1.00   0.00  0.00  0.00  1.00  0.00  0.00  0.00  0.85  0.00
  HS02004876HS02004881    1.00   0.01  0.00  0.00  0.84  0.15  0.00  0.00  0.00  0.00
  HS02004881HS02006253    1.00   0.03  0.02  0.00  0.38  0.00  0.00  0.57  0.30  0.00
  HS02004901HS02004770    1.00   0.13  0.00  0.00  0.87  0.00  0.00  0.00  0.00  0.00
  WS02001211WS02001212    1.00   0.00  0.02  0.00  0.98  0.00  0.00  0.00  0.00  0.00
  WS02001212WS02001213    1.00   0.02  0.00  0.00  0.38  0.00  0.59  0.00  0.00  0.00
  WS02001213WS02003059    1.00   0.00  0.01  0.00  0.99  0.00  0.00  0.00  0.00  0.00
  WS02003059WS02003060    1.00   0.00  0.00  0.00  1.00  0.00  0.00  0.00  0.03  0.00
  WS02003060WS02003069    1.00   0.00  0.00  0.00  0.97  0.03  0.00  0.00  0.44  0.00
  WS02003066WSF200        1.00   0.06  0.00  0.00  0.00  0.94  0.00  0.00  0.68  0.00
  WS02003067WS02003066    1.00   0.05  0.01  0.00  0.94  0.00  0.00  0.00  0.00  0.00
  WS02003069WS02003072    1.00   0.00  0.00  0.00  0.99  0.01  0.00  0.00  0.58  0.00
  WS02003072WS02003073    1.00   0.00  0.00  0.00  0.00  0.00  0.00  1.00  0.00  0.00
  WS02004138WS02004139    1.00   0.02  0.00  0.00  0.97  0.01  0.00  0.00  0.98  0.00
  WS02004139WS02001211    1.00   0.00  0.01  0.00  0.99  0.00  0.00  0.00  0.00  0.00
  WS02004401WS02004402    1.00   0.00  0.00  0.00  1.00  0.00  0.00  0.00  0.00  0.00
  WS02004402WS02004403    1.00   0.00  0.00  0.00  1.00  0.00  0.00  0.00  0.00  0.00
  WS02004403WS02004404    1.00   0.00  0.00  0.00  1.00  0.00  0.00  0.00  0.00  0.00
  WS02004404WS02004405    1.00   0.00  0.00  0.00  1.00  0.00  0.00  0.00  0.01  0.00
  WS02004405WS02004406    1.00   0.00  0.00  0.00  1.00  0.00  0.00  0.00  0.00  0.00
  WS02004406WS02004407    1.00   0.00  0.01  0.00  0.99  0.00  0.00  0.00  0.01  0.00
  WS02004407WS02004409    1.00   0.01  0.00  0.00  0.98  0.01  0.00  0.00  0.84  0.00
  WS02004409WS02004410    1.00   0.01  0.00  0.00  0.99  0.00  0.00  0.00  0.00  0.00
  WS02004410WS02004411    1.00   0.01  0.00  0.00  0.99  0.00  0.00  0.00  0.01  0.00
  WS02004411WS02004412    1.00   0.01  0.00  0.00  0.99  0.00  0.00  0.00  0.00  0.00
  WS02004412WS02004413    1.00   0.01  0.00  0.00  0.99  0.00  0.00  0.00  0.02  0.00
  WS02004413WS02003067    1.00   0.01  0.04  0.00  0.00  0.00  0.95  0.00  0.00  0.00
  WS02006109WS02006110    1.00   0.00  0.00  0.00  1.00  0.00  0.00  0.00  0.00  0.00
  WS02006110WS02006113    1.00   0.00  0.00  0.00  1.00  0.00  0.00  0.00  0.00  0.00
  WS02006111WS02006112    1.00   0.00  0.00  0.00  1.00  0.00  0.00  0.00  0.78  0.00
  WS02006112WS02006115    1.00   0.00  0.00  0.00  1.00  0.00  0.00  0.00  0.00  0.00
  WS02006113WS02006111    1.00   0.00  0.00  0.00  0.20  0.80  0.00  0.00  0.06  0.00
  WS02006115WS02006116    1.00   0.00  0.00  0.00  1.00  0.00  0.00  0.00  0.00  0.00
  WS02006116WS02004401    1.00   0.00  0.00  0.00  1.00  0.00  0.00  0.00  0.00  0.00
  WS02006228WS02006109    1.00   0.00  0.00  0.00  1.00  0.00  0.00  0.00  0.00  0.00
  WS02006229WS02006228    1.00   0.00  0.00  0.00  1.00  0.00  0.00  0.00  0.00  0.00
  WS02006230WS02006229    1.00   0.00  0.00  0.00  1.00  0.00  0.00  0.00  0.00  0.00
  WS02006231WS02006230    1.00   0.00  0.00  0.00  0.31  0.00  0.69  0.00  0.00  0.00
  WS02006232WS02006231    1.00   0.00  0.00  0.00  0.99  0.00  0.00  0.00  0.01  0.00
  WS02006234WS02006232    1.00   0.00  0.01  0.00  0.99  0.00  0.00  0.00  0.02  0.00
  WS02006235WS02006234    1.00   0.02  0.00  0.00  0.89  0.00  0.09  0.00  0.00  0.00
  WS02006238WS02006235    1.00   0.02  0.00  0.00  0.98  0.00  0.00  0.00  0.00  0.00
  WS02006239WS02006238    1.00   0.02  0.00  0.00  0.98  0.00  0.00  0.00  0.07  0.00
  WS02006240WS02006239    1.00   0.02  0.00  0.00  0.61  0.00  0.00  0.37  0.04  0.00
  WS02006242WS02006240    1.00   0.01  0.00  0.00  0.98  0.00  0.01  0.00  0.00  0.00
  WS02006243WS02006242    1.00   0.01  0.00  0.00  0.98  0.00  0.00  0.01  0.54  0.00
  WS02006245WS02006243    1.00   0.01  0.00  0.00  0.88  0.00  0.00  0.11  0.00  0.00
  WS02006247WS02006245    1.00   0.01  0.00  0.00  0.98  0.00  0.00  0.01  0.00  0.00
  WS02006248WS02006247    1.00   0.01  0.00  0.00  0.98  0.00  0.00  0.01  0.53  0.00
  WS02006249WS02006248    1.00   0.00  0.01  0.00  0.46  0.00  0.52  0.00  0.00  0.00
  WS02006251WS02006249    1.00   0.00  0.00  0.00  1.00  0.00  0.00  0.00  0.51  0.00
  WS02006252WS02006251    1.00   0.01  0.10  0.00  0.20  0.00  0.69  0.00  0.00  0.00
  WS02006253WS02006251    1.00   0.01  0.00  0.00  0.99  0.00  0.00  0.00  0.00  0.00
  WS02006256WS02006235    1.00   0.02  0.00  0.00  0.98  0.00  0.00  0.00  0.00  0.00
  WS02006280WS02006229    1.00   0.14  0.00  0.00  0.17  0.02  0.00  0.67  0.00  0.00
  WS02006284WS02006280    1.00   0.14  0.00  0.00  0.11  0.01  0.00  0.73  0.00  0.00
  WS02006287WS02006284    1.00   0.10  0.05  0.00  0.57  0.27  0.00  0.00  0.65  0.00
  WSF200WS02003060        1.00   0.00  0.06  0.00  0.67  0.27  0.00  0.00  0.56  0.00
  YS02001580YS02001583    1.00   0.25  0.55  0.00  0.20  0.00  0.00  0.00  0.65  0.00
  YS02001583YS02001586    1.00   0.41  0.34  0.00  0.25  0.00  0.00  0.00  0.65  0.00
  YS02001586YS02001590    1.00   0.13  0.00  0.00  0.44  0.04  0.00  0.39  0.37  0.00
  YS02001590YS02001593    1.00   0.13  0.01  0.00  0.12  0.00  0.74  0.00  0.00  0.00
  YS02001593YS02001596    1.00   0.13  0.00  0.00  0.15  0.01  0.00  0.71  0.02  0.00
  YS02001596YS02001600    1.00   0.13  0.00  0.00  0.21  0.01  0.00  0.64  0.05  0.00
  YS02001600YS02001601    1.00   0.13  0.01  0.00  0.86  0.00  0.00  0.00  0.59  0.00
  YS02001601YS02001602    1.00   0.13  0.01  0.00  0.87  0.00  0.00  0.00  0.00  0.00
  YS02001602YS02001605    1.00   0.13  0.00  0.00  0.87  0.00  0.00  0.00  0.00  0.00
  YS02001605YS02001607    1.00   0.14  0.00  0.00  0.86  0.00  0.00  0.00  0.00  0.00
  YS02001607YS02001610    1.00   0.13  0.01  0.00  0.86  0.00  0.00  0.00  0.01  0.00
  YS02001610YS02001613    1.00   0.13  0.00  0.00  0.87  0.00  0.00  0.00  0.00  0.00
  YS02001613YS02001616    1.00   0.13  0.00  0.00  0.87  0.00  0.00  0.00  0.00  0.00
  YS02001616YS02001619    1.00   0.13  0.00  0.00  0.87  0.00  0.00  0.00  0.00  0.00
  YS02001619YS02001622    1.00   0.13  0.00  0.00  0.87  0.00  0.00  0.00  0.28  0.00
  YS02001622YS02001625    1.00   0.13  0.00  0.00  0.87  0.00  0.00  0.00  0.04  0.00
  YS02001625YS02001629    1.00   0.13  0.04  0.00  0.17  0.00  0.66  0.00  0.00  0.00
  YS02001629YS02163301    1.00   0.15  0.01  0.00  0.84  0.00  0.00  0.00  0.00  0.00
  YS02001633YS02163601    1.00   0.00  0.01  0.00  0.99  0.00  0.00  0.00  0.15  0.00
  YS02001641YS02001644    1.00   0.00  0.01  0.00  0.99  0.00  0.00  0.00  0.00  0.00
  YS02001644YS02001647    1.00   0.00  0.17  0.00  0.83  0.00  0.00  0.00  0.00  0.00
  YS02001647YS02001649    1.00   0.00  0.17  0.00  0.61  0.22  0.00  0.00  0.57  0.00
  YS02001649YS02001757    1.00   0.00  0.00  0.00  0.92  0.08  0.00  0.00  0.71  0.00
  YS02001652YS02001649    1.00   0.00  0.00  0.00  0.97  0.03  0.00  0.00  0.71  0.00
  YS02001655YS02001652    1.00   0.00  0.00  0.00  0.23  0.01  0.00  0.76  0.06  0.00
  YS02001658YS02001655    1.00   0.00  0.14  0.00  0.68  0.18  0.00  0.00  0.70  0.00
  YS02001661YS02001658    1.00   0.14  0.00  0.00  0.46  0.40  0.00  0.00  0.72  0.00
  YS02001664YS02001661    1.00   0.13  0.00  0.00  0.72  0.15  0.00  0.00  0.86  0.00
  YS02001745YS02001748    1.00   0.00  0.00  0.00  0.06  0.02  0.00  0.92  0.05  0.00
  YS02001748YS02001751    1.00   0.00  0.00  0.00  0.84  0.16  0.00  0.00  0.77  0.00
  YS02001751YS02001754    1.00   0.00  0.00  0.00  0.21  0.01  0.00  0.78  0.05  0.00
  YS02001754YS02001757    1.00   0.00  0.00  0.00  1.00  0.00  0.00  0.00  0.77  0.00
  YS02001757CaochengTiaoxuchi    1.00   0.00  0.00  0.00  0.32  0.68  0.00  0.00  0.13  0.00
  YS02001759YS02001757    1.00   0.00  0.00  0.00  1.00  0.00  0.00  0.00  0.68  0.00
  YS02001762YS02001759    1.00   0.00  0.00  0.00  1.00  0.00  0.00  0.00  0.03  0.00
  YS02001765YS02001762    1.00   0.00  0.00  0.00  1.00  0.00  0.00  0.00  0.67  0.00
  YS02001767YS02001765    1.00   0.00  0.00  0.00  1.00  0.00  0.00  0.00  0.00  0.00
  YS02001770YS02001767    1.00   0.00  0.00  0.00  1.00  0.00  0.00  0.00  0.00  0.00
  YS02001774YS02001770    1.00   0.00  0.13  0.00  0.70  0.00  0.16  0.00  0.03  0.00
  YS02001779YS02001774    1.00   0.00  0.00  0.00  1.00  0.00  0.00  0.00  0.72  0.00
  YS02001783YS02001784    1.00   0.00  0.18  0.00  0.82  0.00  0.00  0.00  0.55  0.00
  YS02001784YS02001785    1.00   0.00  0.00  0.00  1.00  0.00  0.00  0.00  0.16  0.00
  YS02001786YS02001788    1.00   0.00  0.00  0.00  0.79  0.21  0.00  0.00  0.00  0.00
  YS02001788YS02001790    1.00   0.00  0.00  0.00  0.21  0.79  0.00  0.00  0.79  0.00
  YS02001790YS02001791    1.00   0.00  0.00  0.00  0.01  0.99  0.00  0.00  0.16  0.00
  YS02001791YS02001793    1.00   0.00  0.00  0.00  0.00  1.00  0.00  0.00  0.01  0.00
  YS02001793JiankangQianchi    1.00   0.00  0.00  0.00  0.04  0.96  0.00  0.00  0.10  0.00
  YS02001882YS02001884    1.00   0.15  0.01  0.00  0.84  0.00  0.00  0.00  0.00  0.00
  YS02001884YS02001887    1.00   0.06  0.05  0.00  0.89  0.00  0.00  0.00  0.00  0.00
  YS02001887YS02001890    1.00   0.00  0.00  0.00  0.97  0.00  0.03  0.00  0.00  0.00
  YS02001890YS02001895    1.00   0.00  0.16  0.00  0.84  0.00  0.00  0.00  0.00  0.00
  YS02001895YS02001898    1.00   0.16  0.00  0.00  0.82  0.00  0.02  0.00  0.00  0.00
  YS02001898YS02001901    1.00   0.16  0.00  0.00  0.84  0.00  0.00  0.00  0.01  0.00
  YS02001901YS02001904    1.00   0.16  0.00  0.00  0.84  0.00  0.00  0.00  0.00  0.00
  YS02001904YS02001907    1.00   0.00  0.16  0.00  0.84  0.00  0.00  0.00  0.00  0.00
  YS02001907YS02006553    1.00   0.00  0.02  0.00  0.98  0.00  0.00  0.00  0.00  0.00
  YS02001910YS02001907    1.00   0.00  0.00  0.00  0.97  0.00  0.00  0.03  0.12  0.00
  YS02001915YS02001910    1.00   0.00  0.00  0.00  0.97  0.03  0.00  0.00  0.14  0.00
  YS02001918YS02001915    1.00   0.00  0.00  0.00  0.98  0.02  0.00  0.00  0.74  0.00
  YS02001920YS02001918    1.00   0.00  0.00  0.00  1.00  0.00  0.00  0.00  0.01  0.00
  YS02001923YS02001920    1.00   0.00  0.00  0.00  1.00  0.00  0.00  0.00  0.92  0.00
  YS02001926YS02001923    1.00   0.00  0.07  0.00  0.06  0.00  0.86  0.00  0.00  0.00
  YS02001929YS02001926    1.00   0.00  0.13  0.00  0.87  0.00  0.00  0.00  0.82  0.00
  YS02006553YS02006556    1.00   0.01  0.00  0.00  0.99  0.00  0.00  0.00  0.03  0.00
  YS02006556YS02006558    1.00   0.00  0.00  0.00  1.00  0.00  0.00  0.00  0.00  0.00
  YS02006558YS02006561    1.00   0.17  0.00  0.00  0.06  0.77  0.00  0.00  0.18  0.00
  YS02006561YS02001783    1.00   0.17  0.00  0.00  0.09  0.73  0.00  0.00  0.68  0.00
  YS02163301YS02001633    1.00   0.00  0.15  0.00  0.85  0.00  0.00  0.00  0.00  0.00
  YS02163601YS02164001    1.00   0.00  0.08  0.00  0.92  0.00  0.00  0.00  0.00  0.00
  YS02164001YS02001641    1.00   0.01  0.07  0.00  0.92  0.00  0.00  0.00  0.05  0.00
  YSB1154YSB6556          1.00   0.12  0.00  0.00  0.88  0.00  0.00  0.00  0.02  0.00
  YSB1171HS02004479       1.00   0.04  0.00  0.00  0.95  0.00  0.00  0.01  0.10  0.00
  YSB1174YSB1171          1.00   0.05  0.04  0.00  0.91  0.00  0.00  0.00  0.00  0.00
  YSB6556YSB1171          1.00   0.04  0.08  0.00  0.88  0.00  0.00  0.00  0.00  0.00
  
  
  *************************
  Conduit Surcharge Summary
  *************************
  
  ----------------------------------------------------------------------------
                                                           Hours        Hours 
                         --------- Hours Full --------   Above Full   Capacity
  Conduit                Both Ends  Upstream  Dnstream   Normal Flow   Limited
  ----------------------------------------------------------------------------
  HS02004478WS02006287        0.51      0.51      0.70      0.01         0.01
  HS02004479HS02004480        0.70      0.70      0.72      0.01         0.01
  HS02004480HS02004478        0.62      0.69      0.62      1.76         0.62
  HS02004770HS02004777        0.59      0.59      0.59      0.12         0.08
  HS02004777HS02004785        0.54      0.54      0.59      0.01         0.01
  HS02004785HS02004788        0.53      0.54      0.53      1.51         0.49
  HS02004788HS02004792        0.53      0.53      0.66      0.01         0.01
  HS02004792HS02004799        0.66      0.66      0.80      0.01         0.01
  HS02004799HS02004480        0.69      0.69      0.80      0.91         0.01
  HS02004802HS02004478        0.64      0.64      0.71      0.11         0.01
  HS02004807HS02004802        0.69      0.69      0.71      0.27         0.28
  HS02004817HS02004807        0.69      0.69      1.34      0.01         0.01
  HS02004817HS02004824        0.53      0.53      1.34      0.01         0.01
  HS02004824HS02004830        0.50      0.50      0.53      0.01         0.01
  HS02004830HS02004837        0.46      0.46      0.50      0.01         0.01
  HS02004837HS02004842        0.46      0.46      0.60      0.01         0.01
  HS02004842HS02004848        0.41      0.41      0.60      0.01         0.01
  HS02004848HS02004852        0.41      0.41      0.44      0.03         0.01
  HS02004852HS02004856        0.44      0.44      0.46      0.02         0.01
  HS02004856HS02004862        0.42      0.42      0.46      0.01         0.01
  HS02004862HS02004870        0.46      0.46      0.48      0.20         0.19
  HS02004870HS02004876        0.48      0.48      0.53      0.01         0.01
  HS02004876HS02004881        0.51      0.53      0.51      1.54         0.51
  HS02004881HS02006253        0.51      0.51      1.53      0.01         0.01
  HS02004901HS02004770        0.59      0.59      0.59      0.01         0.01
  WS02003072WS02003073        0.01      0.01      0.01      3.04         0.01
  WS02004401WS02004402        1.66      1.66      1.71      1.52         1.52
  WS02004402WS02004403        1.71      1.71      1.71      1.63         1.62
  WS02004403WS02004404        1.71      1.71      1.81      0.01         0.02
  WS02004404WS02004405        1.79      1.81      1.79      3.53         1.79
  WS02004405WS02004406        1.78      1.79      1.78      1.93         1.77
  WS02004406WS02004407        0.01      0.01      1.78      0.01         0.01
  WS02004407WS02004409        0.01      0.01      1.16      0.01         0.01
  WS02004409WS02004410        1.08      1.16      1.08      1.55         1.08
  WS02004410WS02004411        0.97      1.08      0.97      1.58         0.97
  WS02004411WS02004412        0.85      0.97      0.85      1.60         0.85
  WS02004412WS02004413        0.85      0.85      1.45      0.01         0.01
  WS02004413WS02003067        0.01      0.01      1.45      0.01         0.01
  WS02006109WS02006110        1.91      1.92      2.18      1.92         0.01
  WS02006110WS02006113        1.43      1.43      2.16      0.32         0.01
  WS02006111WS02006112        1.41      1.42      2.53      0.01         0.01
  WS02006112WS02006115        1.55      1.55      1.96      0.01         0.01
  WS02006113WS02006111        1.43      1.43      1.43      1.54         1.42
  WS02006115WS02006116        1.56      1.56      1.57      1.55         1.53
  WS02006116WS02004401        1.65      1.65      1.66      1.59         1.58
  WS02006228WS02006109        2.12      2.18      2.12      3.13         2.12
  WS02006229WS02006228        2.12      2.13      2.12      2.40         2.12
  WS02006230WS02006229        2.22      2.27      2.22      3.91         1.01
  WS02006231WS02006230        1.81      1.81      1.87      3.32         1.12
  WS02006232WS02006231        1.86      1.86      1.98      0.01         0.15
  WS02006234WS02006232        1.91      1.91      1.98      0.01         0.01
  WS02006235WS02006234        1.90      1.90      1.91      3.08         1.09
  WS02006238WS02006235        1.91      1.91      1.94      0.01         0.38
  WS02006239WS02006238        1.91      1.92      1.92      0.92         0.04
  WS02006240WS02006239        1.90      1.90      1.90      0.91         0.03
  WS02006242WS02006240        1.89      1.89      1.93      1.41         1.00
  WS02006243WS02006242        1.85      1.85      1.90      0.01         0.01
  WS02006245WS02006243        1.81      1.82      1.84      0.01         0.02
  WS02006247WS02006245        1.81      1.82      1.81      2.91         0.49
  WS02006248WS02006247        1.77      1.77      1.81      0.01         0.01
  WS02006249WS02006248        1.75      1.75      1.77      1.66         0.01
  WS02006251WS02006249        1.75      1.75      1.77      1.36         1.37
  WS02006252WS02006251        1.53      1.53      1.57      0.01         0.01
  WS02006253WS02006251        1.74      1.74      1.76      0.84         0.01
  WS02006256WS02006235        3.36      3.38      7.45      0.71         0.01
  WS02006280WS02006229        0.85      0.85      1.02      0.01         0.01
  WS02006284WS02006280        0.73      0.73      0.83      0.01         0.01
  WS02006287WS02006284        0.62      0.62      0.74      0.31         0.32
  YS02001580YS02001583        0.64      0.64      0.68      0.01         0.01
  YS02001583YS02001586        0.65      0.65      0.76      0.01         0.01
  YS02001586YS02001590        0.77      0.77      0.84      0.01         0.01
  YS02001590YS02001593        0.85      0.85      0.87      0.90         0.01
  YS02001593YS02001596        0.86      0.86      0.98      0.01         0.01
  YS02001596YS02001600        1.03      1.03      1.17      0.01         0.01
  YS02001600YS02001601        1.23      1.23      1.51      0.01         0.01
  YS02001601YS02001602        1.40      1.40      1.55      1.19         0.01
  YS02001602YS02001605        1.34      1.34      1.40      2.37         0.01
  YS02001605YS02001607        1.30      1.34      1.30      1.47         1.30
  YS02001607YS02001610        0.79      0.79      0.82      0.01         0.01
  YS02001610YS02001613        0.78      0.78      0.82      0.01         0.01
  YS02001613YS02001616        0.73      0.73      0.78      0.01         0.01
  YS02001616YS02001619        0.72      0.72      0.73      0.01         0.02
  YS02001619YS02001622        0.71      0.72      0.71      0.89         0.70
  YS02001622YS02001625        0.71      0.71      0.93      0.01         0.01
  YS02001625YS02001629        0.62      0.62      0.93      0.01         0.01
  YS02001629YS02163301        0.91      0.91      0.92      0.37         0.34
  YS02001633YS02163601        0.95      0.95      0.98      0.54         0.53
  YS02001641YS02001644        0.80      0.85      0.80      1.58         0.79
  YS02001644YS02001647        0.48      0.48      0.80      0.04         0.01
  YS02001647YS02001649        0.48      0.48      0.58      0.01         0.01
  YS02001649YS02001757        0.58      0.58      0.68      0.45         0.38
  YS02001652YS02001649        0.40      0.40      0.58      0.01         0.01
  YS02001655YS02001652        0.25      0.25      0.38      0.01         0.01
  YS02001658YS02001655        0.16      0.16      0.25      0.01         0.01
  YS02001661YS02001658        0.01      0.01      0.16      0.01         0.01
  YS02001664YS02001661        0.01      0.01      0.03      0.01         0.01
  YS02001745YS02001748        0.01      0.01      0.07      0.01         0.01
  YS02001748YS02001751        0.13      0.13      0.18      0.01         0.01
  YS02001751YS02001754        0.18      0.18      0.25      0.01         0.01
  YS02001754YS02001757        0.29      0.29      0.68      0.01         0.01
  YS02001757CaochengTiaoxuchi        0.38      0.68      1.39      0.49         0.13
  YS02001759YS02001757        0.48      0.48      0.68      0.01         0.04
  YS02001762YS02001759        0.45      0.45      0.48      0.01         0.03
  YS02001765YS02001762        0.41      0.41      0.45      0.01         0.01
  YS02001767YS02001765        0.39      0.39      0.41      0.02         0.05
  YS02001770YS02001767        0.39      0.39      0.39      0.59         0.37
  YS02001774YS02001770        0.37      0.37      0.44      0.01         0.01
  YS02001779YS02001774        0.27      0.27      0.44      0.01         0.01
  YS02001783YS02001784        0.54      0.57      0.54      0.74         0.54
  YS02001784YS02001785        0.42      0.54      0.42      1.02         0.42
  YS02001786YS02001788        0.01      0.42      0.01      0.86         0.01
  YS02001790YS02001791        0.01      0.01      0.01      0.52         0.01
  YS02001793JiankangQianchi        0.01      0.01      0.21      0.01         0.01
  YS02001882YS02001884        0.50      0.50      0.51      0.01         0.01
  YS02001884YS02001887        0.54      0.54      0.55      0.01         0.01
  YS02001887YS02001890        0.57      0.57      0.58      0.10         0.01
  YS02001890YS02001895        0.49      0.49      0.60      0.01         0.01
  YS02001895YS02001898        0.48      0.48      0.49      0.01         0.01
  YS02001898YS02001901        0.49      0.49      0.54      0.01         0.01
  YS02001901YS02001904        0.53      0.53      0.54      0.01         0.01
  YS02001904YS02001907        0.53      0.53      0.85      0.01         0.01
  YS02001907YS02006553        1.04      1.04      1.11      0.01         0.01
  YS02001910YS02001907        0.60      0.60      0.83      0.01         0.01
  YS02001915YS02001910        0.50      0.50      0.60      0.01         0.01
  YS02001918YS02001915        0.41      0.41      0.50      0.01         0.01
  YS02001920YS02001918        0.41      0.41      0.42      0.01         0.01
  YS02001923YS02001920        0.36      0.36      0.42      0.01         0.01
  YS02001926YS02001923        0.08      0.08      0.13      0.01         0.01
  YS02001929YS02001926        0.01      0.01      0.13      0.01         0.01
  YS02006553YS02006556        0.70      0.70      0.84      0.01         0.01
  YS02006556YS02006558        0.78      0.78      0.87      0.01         0.01
  YS02006558YS02006561        0.45      0.69      0.45      0.97         0.45
  YS02006561YS02001783        0.37      0.37      0.57      0.01         0.01
  YS02163301YS02001633        0.92      0.92      0.97      0.01         0.01
  YS02163601YS02164001        0.85      0.85      0.98      0.29         0.01
  YS02164001YS02001641        0.85      0.85      0.85      0.84         0.68
  YSB1154YSB6556              0.77      0.77      0.95      0.01         0.01
  YSB1171HS02004479           0.65      0.65      0.95      0.01         0.01
  YSB1174YSB1171              0.84      0.84      1.25      0.01         0.01
  YSB6556YSB1171              0.77      0.77      1.40      0.01         0.01
  
  
  ***************
  Pumping Summary
  ***************
  
  ---------------------------------------------------------------------------------------------------------
                                                  Min       Avg       Max     Total     Power    % Time Off
                        Percent   Number of      Flow      Flow      Flow    Volume     Usage    Pump Curve
  Pump                 Utilized   Start-Ups       LPS       LPS       LPS  10^6 ltr     Kw-hr    Low   High
  ---------------------------------------------------------------------------------------------------------
  CC-R1                   50.00          12      0.00    585.01    683.00     6.831    116.35    0.0   71.4
  CC-R2                   78.12          12      0.00    384.75    683.00     5.097     84.90    0.0   90.7
  CC-S1                   30.21           5      0.00    195.60    200.00     1.691     12.22    0.0   32.8
  CC-S2                   52.08          12      0.00    102.29    200.00     0.784      5.41    0.0   84.0
  JK-R1                   78.12          12      0.00    142.07   1000.00     2.599      7.68    0.0    0.0
  JK-R2                   39.58          12      0.00    219.83   1000.00     2.394      6.29    0.0    0.0
  JK-S                    35.42          14      0.00    124.39    300.00     1.189     26.59    0.0    0.0
  XR-1                    97.91           1      0.00     95.00     95.00     2.679      9.64    0.0    0.0
  XR-2                    93.95           1      0.00     95.00     95.00     2.570      8.80    0.0    0.0
  XR-3                     0.00           0      0.00      0.00      0.00     0.000      0.00    0.0    0.0
  XR-4                     0.00           0      0.00      0.00      0.00     0.000      0.00    0.0    0.0
  

  Analysis begun on:  Thu Jun 15 06:46:18 2023
  Analysis ended on:  Thu Jun 15 06:46:21 2023
  Total elapsed time: 00:00:03