
  OWA STORM WATER MANAGEMENT MODEL - VERSION v5.2.3 (OWA 2023-03-28)
  ------------------------------------------------------------

  WARNING 04: minimum elevation drop used for Conduit WS02004404WS02004405
  WARNING 03: negative offset ignored for Link YS02001904YS02001907
  
  ****************
  Analysis Options
  ****************
  Flow Units ............... LPS
  Process Models:
    Rainfall/Runoff ........ YES
    RDII ................... NO
    Snowmelt ............... NO
    Groundwater ............ NO
    Flow Routing ........... YES
    Ponding Allowed ........ NO
    Water Quality .......... NO
  Infiltration Method ...... HORTON
  Flow Routing Method ...... DYNWAVE
  Surcharge Method ......... EXTRAN
  Starting Date ............ 08/28/2015 08:00:00
  Ending Date .............. 08/28/2015 16:00:00
  Antecedent Dry Days ...... 8.0
  Report Time Step ......... 00:01:00
  Wet Time Step ............ 00:01:00
  Dry Time Step ............ 00:01:00
  Routing Time Step ........ 30.00 sec
  Variable Time Step ....... YES
  Maximum Trials ........... 8
  Number of Threads ........ 1
  Head Tolerance ........... 0.001500 m
  
  
  **************************        Volume         Depth
  Runoff Quantity Continuity     hectare-m            mm
  **************************     ---------       -------
  Total Precipitation ......         4.770        78.741
  Evaporation Loss .........         0.000         0.000
  Infiltration Loss ........         0.245         4.037
  Surface Runoff ...........         4.466        73.715
  Final Storage ............         0.061         1.007
  Continuity Error (%) .....        -0.023
  
  
  **************************        Volume        Volume
  Flow Routing Continuity        hectare-m      10^6 ltr
  **************************     ---------     ---------
  Dry Weather Inflow .......         0.630         6.296
  Wet Weather Inflow .......         4.466        44.660
  Groundwater Inflow .......         0.000         0.000
  RDII Inflow ..............         0.000         0.000
  External Inflow ..........         0.105         1.045
  External Outflow .........         3.447        34.467
  Flooding Loss ............         2.242        22.424
  Evaporation Loss .........         0.000         0.000
  Exfiltration Loss ........         0.000         0.000
  Initial Stored Volume ....         0.303         3.031
  Final Stored Volume ......         0.173         1.732
  Continuity Error (%) .....        -6.526
  
  
  *************************
  Highest Continuity Errors
  *************************
  Node JK-storage (-61.01%)
  Node YS02001884 (4.96%)
  Node YS02001583 (-4.94%)
  Node CC-storage (-3.27%)
  Node HS02004842 (1.50%)
  
  
  ***************************
  Time-Step Critical Elements
  ***************************
  Link WS02006252WS02006251 (69.42%)
  Link YS02001793JiankangQianchi (12.62%)
  Link WS02006280WS02006229 (7.11%)
  Link WS02006238WS02006235 (2.35%)
  Link YS02001791YS02001793 (1.89%)
  
  
  ********************************
  Highest Flow Instability Indexes
  ********************************
  Link WS02006113WS02006111 (29)
  Link WS02006111WS02006112 (22)
  Link WS02006238WS02006235 (17)
  Link WS02004404WS02004405 (16)
  Link WS02006235WS02006234 (14)
  
  
  *********************************
  Most Frequent Nonconverging Nodes
  *********************************
  Node CC-1 (7.17%)
  Node CC-2 (7.17%)
  Node JK-1 (7.17%)
  Node JK-2 (7.17%)
  Node WSC (7.17%)
  
  
  *************************
  Routing Time Step Summary
  *************************
  Minimum Time Step           :     0.01 sec
  Average Time Step           :     1.44 sec
  Maximum Time Step           :    30.00 sec
  % of Time in Steady State   :     0.00
  Average Iterations per Step :     2.91
  % of Steps Not Converging   :     7.17
  Time Step Frequencies       :
     30.000 - 13.228 sec      :     0.01 %
     13.228 -  5.833 sec      :     0.12 %
      5.833 -  2.572 sec      :    13.66 %
      2.572 -  1.134 sec      :    34.47 %
      1.134 -  0.500 sec      :    51.75 %
  
  
  ***************************
  Subcatchment Runoff Summary
  ***************************
  
  ------------------------------------------------------------------------------------------------------------------------------
                            Total      Total      Total      Total     Imperv       Perv      Total       Total     Peak  Runoff
                           Precip      Runon       Evap      Infil     Runoff     Runoff     Runoff      Runoff   Runoff   Coeff
  Subcatchment                 mm         mm         mm         mm         mm         mm         mm    10^6 ltr      LPS
  ------------------------------------------------------------------------------------------------------------------------------
  sub0                      78.74       0.00       0.00       1.02      71.99       4.49      76.48        0.06    44.21   0.971
  sub1                      78.74       0.00       0.00       1.74      68.84       6.92      75.76        0.50   299.25   0.962
  sub10                     78.74       0.00       0.00       1.23      71.16       5.07      76.24        0.84   508.84   0.968
  sub11                     78.74       0.00       0.00       1.21      71.18       5.09      76.27        0.89   567.44   0.969
  sub12                     78.74       0.00       0.00       1.97      67.34       8.27      75.60        0.66   454.05   0.960
  sub14                     78.74       0.00       0.00       1.38      70.40       5.71      76.11        0.72   451.86   0.967
  sub15                     78.74       0.00       0.00       5.37      54.15      18.26      72.41        1.25   695.95   0.920
  sub16                     78.74       0.00       0.00       5.57      51.85      20.42      72.27        0.76   467.22   0.918
  sub17                     78.74       0.00       0.00       5.43      52.62      19.77      72.40        0.62   379.39   0.919
  sub2                      78.74       0.00       0.00       7.64      48.71      21.50      70.21        0.65   306.19   0.892
  sub22                     78.74       0.00       0.00       8.12      44.10      25.75      69.85        4.41  2307.49   0.887
  sub23                     78.74       0.00       0.00       6.63      48.75      22.51      71.26        3.40  1909.50   0.905
  sub3                      78.74       0.00       0.00       8.30      48.67      20.83      69.50        1.56   661.34   0.883
  sub4                      78.74       0.00       0.00       1.93      68.67       6.73      75.40        1.57   731.40   0.958
  sub5                      78.74       0.00       0.00       1.07      71.93       4.44      76.37        0.87   515.16   0.970
  sub60                     78.74       0.00       0.00       1.86      68.09       7.60      75.69        0.99   643.59   0.961
  sub61                     78.74       0.00       0.00       2.69      64.23      10.70      74.93        1.37   892.59   0.952
  sub62                     78.74       0.00       0.00       1.24      71.16       5.07      76.22        2.09  1248.55   0.968
  sub63                     78.74       0.00       0.00       4.94      54.94      17.90      72.84        1.65   994.36   0.925
  sub64                     78.74       0.00       0.00       2.50      65.73       9.31      75.04        1.80  1020.19   0.953
  sub65                     78.74       0.00       0.00       2.16      67.25       8.08      75.33        2.07  1138.72   0.957
  sub66                     78.74       0.00       0.00       6.07      54.83      16.76      71.59        3.34  1486.55   0.909
  sub67                     78.74       0.00       0.00       1.19      71.20       5.11      76.31        1.42   965.54   0.969
  sub68                     78.74       0.00       0.00       2.23      66.53       8.80      75.34        2.07  1282.13   0.957
  sub69                     78.74       0.00       0.00       1.99      66.82       9.83      76.65        2.84  1515.29   0.973
  sub7                      78.74       0.00       0.00       1.36      70.42       5.73      76.14        0.26   168.05   0.967
  sub70                     78.74       0.00       0.00       6.57      51.81      20.20      72.01        2.08   836.63   0.915
  sub71                     78.74       0.00       0.00       1.27      71.12       5.03      76.15        1.99  1103.30   0.967
  sub72                     78.74       0.00       0.00       1.13      71.83       4.39      76.22        1.05   533.33   0.968
  sub8                      78.74       0.00       0.00       1.38      70.41       5.71      76.12        0.49   307.76   0.967
  sub9                      78.74       0.00       0.00       1.38      70.40       5.71      76.11        0.37   229.83   0.967
  
  
  ******************
  Node Depth Summary
  ******************
  
  ---------------------------------------------------------------------------------
                                 Average  Maximum  Maximum  Time of Max    Reported
                                   Depth    Depth      HGL   Occurrence   Max Depth
  Node                 Type       Meters   Meters   Meters  days hr:min      Meters
  ---------------------------------------------------------------------------------
  HS02004478           JUNCTION     0.23     1.60    10.83     0  01:47        1.59
  HS02004479           JUNCTION     0.30     1.80    11.01     0  01:45        1.80
  HS02004480           JUNCTION     0.27     1.75    10.99     0  01:45        1.75
  HS02004770           JUNCTION     0.27     1.42    11.25     0  01:42        1.42
  HS02004777           JUNCTION     0.30     1.48    11.28     0  01:42        1.48
  HS02004785           JUNCTION     0.19     1.49    11.39     0  01:42        1.49
  HS02004788           JUNCTION     0.16     1.42    11.32     0  01:42        1.42
  HS02004792           JUNCTION     0.22     1.60    11.12     0  01:43        1.60
  HS02004799           JUNCTION     0.33     1.76    10.97     0  01:43        1.76
  HS02004802           JUNCTION     0.33     1.81    10.93     0  01:47        1.80
  HS02004807           JUNCTION     0.30     1.92    11.09     0  01:45        1.92
  HS02004817           JUNCTION     0.61     2.44    11.29     0  01:45        2.42
  HS02004824           JUNCTION     0.19     2.01    11.41     0  01:45        2.01
  HS02004830           JUNCTION     0.19     2.03    11.50     0  01:45        2.00
  HS02004837           JUNCTION     0.17     1.99    11.57     0  01:45        1.97
  HS02004842           JUNCTION     0.46     2.22    11.49     0  01:45        2.22
  HS02004848           JUNCTION     0.15     2.03    11.63     0  01:45        2.01
  HS02004852           JUNCTION     0.15     2.12    11.63     0  01:45        2.06
  HS02004856           JUNCTION     0.21     2.07    11.50     0  01:45        2.05
  HS02004862           JUNCTION     0.16     2.00    11.38     0  01:45        2.00
  HS02004870           JUNCTION     0.16     2.10    11.39     0  01:45        2.06
  HS02004876           JUNCTION     0.20     2.19    11.22     0  01:50        2.19
  HS02004881           JUNCTION     0.14     2.15    11.18     0  01:45        1.94
  HS02004901           JUNCTION     0.28     1.42    11.24     0  01:42        1.42
  WS02001211           JUNCTION     0.63     0.82     5.66     0  01:54        0.82
  WS02001212           JUNCTION     0.37     0.58     5.65     0  01:53        0.58
  WS02001213           JUNCTION     0.60     0.88     5.64     0  01:53        0.88
  WS02003059           JUNCTION     0.66     0.95     5.63     0  01:53        0.95
  WS02003060           JUNCTION     0.39     0.70     5.63     0  01:53        0.70
  WS02003066           JUNCTION     0.24     0.46     6.01     0  01:50        0.46
  WS02003067           JUNCTION     0.56     0.89     6.21     0  01:48        0.89
  WS02003069           JUNCTION     0.43     0.79     5.37     0  01:54        0.79
  WS02003072           JUNCTION     0.49     0.82     5.19     0  01:54        0.82
  WS02003073           JUNCTION     0.30     0.52     4.59     0  01:55        0.52
  WS02004138           JUNCTION     0.13     0.14     7.39     0  00:32        0.14
  WS02004139           JUNCTION     0.57     0.75     5.66     0  01:53        0.75
  WS02004401           JUNCTION     0.79     1.96     7.96     0  01:30        1.94
  WS02004402           JUNCTION     0.81     1.89     7.85     0  01:50        1.88
  WS02004403           JUNCTION     0.81     1.82     7.75     0  01:50        1.79
  WS02004404           JUNCTION     0.88     1.82     7.67     0  01:50        1.82
  WS02004405           JUNCTION     0.87     1.77     7.62     0  01:50        1.75
  WS02004406           JUNCTION     0.86     1.85     7.68     0  01:30        1.63
  WS02004407           JUNCTION     0.27     0.99     7.30     0  01:50        0.99
  WS02004409           JUNCTION     0.55     1.46     7.23     0  01:50        1.46
  WS02004410           JUNCTION     0.56     1.36     7.08     0  01:50        1.36
  WS02004411           JUNCTION     0.56     1.23     6.91     0  01:50        1.22
  WS02004412           JUNCTION     0.56     1.12     6.76     0  01:50        1.12
  WS02004413           JUNCTION     0.70     1.16     6.63     0  01:50        1.15
  WS02006109           JUNCTION     0.98     2.64     9.26     0  01:43        2.64
  WS02006110           JUNCTION     0.93     2.45     9.03     0  01:50        2.45
  WS02006111           JUNCTION     0.43     1.89     8.60     0  01:50        1.89
  WS02006112           JUNCTION     1.00     2.68     8.56     0  00:00        2.53
  WS02006113           JUNCTION     0.51     1.92     8.81     0  01:50        1.92
  WS02006115           JUNCTION     0.70     2.11     8.25     0  01:50        2.11
  WS02006116           JUNCTION     0.78     2.06     8.10     0  01:50        2.06
  WS02006228           JUNCTION     1.03     3.03     9.68     0  01:43        3.03
  WS02006229           JUNCTION     1.04     3.24     9.93     0  01:54        3.24
  WS02006230           JUNCTION     0.96     2.65     9.39     0  01:40        2.65
  WS02006231           JUNCTION     0.69     2.21     9.33     0  01:54        2.21
  WS02006232           JUNCTION     0.79     2.18     9.22     0  01:40        2.18
  WS02006234           JUNCTION     0.67     1.96     9.12     0  01:38        1.96
  WS02006235           JUNCTION     0.68     2.00     9.16     0  01:30        1.97
  WS02006238           JUNCTION     0.71     2.03     9.17     0  01:30        1.95
  WS02006239           JUNCTION     0.65     2.00     9.21     0  01:30        1.81
  WS02006240           JUNCTION     0.60     2.10     9.39     0  01:28        1.64
  WS02006242           JUNCTION     0.64     1.55     8.82     0  01:28        1.55
  WS02006243           JUNCTION     0.53     1.48     8.90     0  01:28        1.38
  WS02006245           JUNCTION     0.51     1.56     9.05     0  01:28        1.30
  WS02006247           JUNCTION     0.52     1.38     8.88     0  01:28        1.28
  WS02006248           JUNCTION     0.47     1.10     8.69     0  01:28        1.10
  WS02006249           JUNCTION     0.50     1.09     8.69     0  01:28        1.09
  WS02006251           JUNCTION     0.58     2.21     9.88     0  01:45        2.16
  WS02006252           JUNCTION     0.42     1.50     9.74     0  01:25        1.50
  WS02006253           JUNCTION     0.67     3.52    11.16     0  01:45        3.17
  WS02006256           JUNCTION     0.99     2.35     9.28     0  00:11        2.35
  WS02006280           JUNCTION     0.30     1.75    10.02     0  01:43        1.75
  WS02006284           JUNCTION     0.55     1.97    10.37     0  01:52        1.97
  WS02006287           JUNCTION     0.29     1.76    10.71     0  01:52        1.76
  WSF200               JUNCTION     0.23     0.53     5.76     0  01:51        0.53
  YS02001580           JUNCTION     0.09     1.05     9.59     0  01:42        0.79
  YS02001583           JUNCTION     0.13     1.14     9.64     0  01:42        0.83
  YS02001586           JUNCTION     0.20     1.13     9.30     0  01:42        1.13
  YS02001590           JUNCTION     0.30     1.40     9.26     0  01:42        1.40
  YS02001593           JUNCTION     0.23     1.32     9.18     0  01:42        1.31
  YS02001596           JUNCTION     0.31     1.69     9.11     0  01:45        1.69
  YS02001600           JUNCTION     0.37     1.87     9.00     0  01:42        1.87
  YS02001601           JUNCTION     0.56     2.06     8.90     0  01:41        2.06
  YS02001602           JUNCTION     0.48     1.87     8.77     0  01:42        1.87
  YS02001605           JUNCTION     0.45     1.78     8.68     0  01:42        1.78
  YS02001607           JUNCTION     0.44     1.66     8.51     0  01:50        1.66
  YS02001610           JUNCTION     0.49     1.68     8.48     0  01:42        1.68
  YS02001613           JUNCTION     0.45     1.69     8.53     0  01:42        1.66
  YS02001616           JUNCTION     0.38     1.61     8.52     0  01:42        1.61
  YS02001619           JUNCTION     0.36     1.61     8.54     0  01:42        1.61
  YS02001622           JUNCTION     0.35     1.62     8.52     0  01:45        1.62
  YS02001625           JUNCTION     0.60     1.78     8.38     0  01:42        1.78
  YS02001629           JUNCTION     0.48     1.85     8.40     0  01:42        1.85
  YS02001633           JUNCTION     0.56     2.08     8.53     0  01:50        2.08
  YS02001641           JUNCTION     0.54     1.95     8.39     0  01:50        1.95
  YS02001644           JUNCTION     0.54     1.92     8.35     0  01:46        1.92
  YS02001647           JUNCTION     0.34     1.81     8.42     0  01:47        1.78
  YS02001649           JUNCTION     0.41     2.05     8.44     0  01:47        2.00
  YS02001652           JUNCTION     0.30     2.16     8.76     0  01:47        1.86
  YS02001655           JUNCTION     0.22     2.16     9.01     0  01:47        1.69
  YS02001658           JUNCTION     0.14     2.30     9.44     0  01:47        1.49
  YS02001661           JUNCTION     0.15     1.82     9.22     0  01:47        1.32
  YS02001664           JUNCTION     0.06     0.99     8.91     0  01:47        0.89
  YS02001745           JUNCTION     0.06     2.35     9.87     0  01:47        0.84
  YS02001748           JUNCTION     0.13     2.27     9.35     0  01:47        1.26
  YS02001751           JUNCTION     0.18     2.20     9.08     0  01:46        1.46
  YS02001754           JUNCTION     0.28     2.20     8.81     0  01:47        1.75
  YS02001757           JUNCTION     0.45     2.21     8.47     0  01:47        2.09
  YS02001759           JUNCTION     0.39     2.19     8.56     0  01:47        2.13
  YS02001762           JUNCTION     0.38     2.15     8.55     0  01:47        2.10
  YS02001765           JUNCTION     0.36     2.10     8.55     0  01:47        2.07
  YS02001767           JUNCTION     0.35     2.03     8.52     0  01:47        2.01
  YS02001770           JUNCTION     0.36     1.95     8.45     0  01:47        1.95
  YS02001774           JUNCTION     0.42     2.02     8.44     0  01:50        2.02
  YS02001779           JUNCTION     0.25     1.68     8.37     0  01:45        1.68
  YS02001783           JUNCTION     0.23     1.47     7.61     0  01:45        1.24
  YS02001784           JUNCTION     0.25     1.25     7.32     0  01:45        1.14
  YS02001786           JUNCTION     0.21     1.02     7.05     0  01:45        0.88
  YS02001788           JUNCTION     0.15     0.63     6.60     0  01:45        0.63
  YS02001790           JUNCTION     0.18     0.73     6.37     0  01:50        0.72
  YS02001791           JUNCTION     0.11     0.44     5.91     0  01:50        0.44
  YS02001793           JUNCTION     0.07     0.26     5.09     0  01:50        0.25
  YS02001882           JUNCTION     0.30     1.83     8.55     0  01:45        1.83
  YS02001884           JUNCTION     0.39     1.93     8.55     0  01:45        1.93
  YS02001887           JUNCTION     0.46     2.00     8.54     0  01:45        2.00
  YS02001890           JUNCTION     0.49     1.81     8.32     0  01:44        1.81
  YS02001895           JUNCTION     0.27     1.75     8.50     0  01:45        1.75
  YS02001898           JUNCTION     0.28     1.77     8.51     0  01:45        1.77
  YS02001901           JUNCTION     0.39     1.87     8.48     0  01:45        1.87
  YS02001904           JUNCTION     0.37     1.85     8.48     0  01:45        1.85
  YS02001907           JUNCTION     0.68     1.96     8.25     0  01:45        1.96
  YS02001910           JUNCTION     0.49     2.04     8.54     0  01:45        2.04
  YS02001915           JUNCTION     0.30     2.00     8.72     0  01:50        2.00
  YS02001918           JUNCTION     0.17     1.81     8.88     0  01:45        1.81
  YS02001920           JUNCTION     0.25     2.14     9.15     0  01:45        2.08
  YS02001923           JUNCTION     0.13     2.03     9.29     0  01:45        2.03
  YS02001926           JUNCTION     0.16     1.90     9.35     0  01:45        1.85
  YS02001929           JUNCTION     0.09     1.78     9.47     0  01:45        1.60
  YS02006553           JUNCTION     0.68     2.19     8.47     0  01:45        2.19
  YS02006556           JUNCTION     0.66     2.39     8.70     0  01:45        2.39
  YS02006558           JUNCTION     0.70     2.45     8.71     0  01:45        2.45
  YS02006561           JUNCTION     0.15     1.18     7.84     0  01:45        0.90
  YS02163301           JUNCTION     0.50     1.96     8.48     0  01:50        1.96
  YS02163601           JUNCTION     0.59     2.06     8.46     0  01:50        2.06
  YS02164001           JUNCTION     0.53     1.95     8.41     0  01:47        1.95
  YSB1154              JUNCTION     0.44     2.10    11.16     0  01:45        2.10
  YSB1171              JUNCTION     0.58     1.95    10.85     0  01:43        1.95
  YSB1174              JUNCTION     0.39     1.95    11.06     0  01:45        1.95
  YSB6556              JUNCTION     0.33     1.80    10.97     0  01:43        1.80
  CC-1                 OUTFALL      0.00     0.00     0.00     0  00:00        0.00
  CC-2                 OUTFALL      0.00     0.00     0.00     0  00:00        0.00
  JK-1                 OUTFALL      0.00     0.00     0.00     0  00:00        0.00
  JK-2                 OUTFALL      0.00     0.00     0.00     0  00:00        0.00
  WSC                  OUTFALL      0.30     0.52     1.19     0  01:55        0.52
  CC-storage           STORAGE      0.64     1.78     7.28     0  03:00        1.78
  JK-storage           STORAGE      0.08     3.00     3.80     0  00:05        3.00
  XR-storage           STORAGE      7.89     9.26     7.26     0  08:00        9.26
  
  
  *******************
  Node Inflow Summary
  *******************
  
  -------------------------------------------------------------------------------------------------
                                  Maximum  Maximum                  Lateral       Total        Flow
                                  Lateral    Total  Time of Max      Inflow      Inflow     Balance
                                   Inflow   Inflow   Occurrence      Volume      Volume       Error
  Node                 Type           LPS      LPS  days hr:min    10^6 ltr    10^6 ltr     Percent
  -------------------------------------------------------------------------------------------------
  HS02004478           JUNCTION      0.00  2305.88     0  01:48           0          10      -0.007
  HS02004479           JUNCTION      0.00   496.65     0  01:45           0       0.982       0.073
  HS02004480           JUNCTION      0.00  2134.24     0  01:43           0         7.4       0.028
  HS02004770           JUNCTION   1909.50  1909.50     0  01:51         3.4        3.66       0.079
  HS02004777           JUNCTION      0.03   777.25     0  01:42    0.000864         2.1       0.250
  HS02004785           JUNCTION      0.15   780.60     0  01:42     0.00432         2.1       0.006
  HS02004788           JUNCTION    697.62   869.86     0  01:50        1.29        3.39       0.012
  HS02004792           JUNCTION   2307.77  3168.86     0  01:51        4.42        7.81      -0.001
  HS02004799           JUNCTION    451.86  1755.09     0  01:43       0.725        6.76       0.043
  HS02004802           JUNCTION      0.00  1232.96     0  01:57           0         2.8       0.141
  HS02004807           JUNCTION    567.44  1759.97     0  01:50       0.886        3.08       0.135
  HS02004817           JUNCTION      0.60  1196.83     0  01:54      0.0173        2.25       0.726
  HS02004824           JUNCTION    731.45  1308.23     0  01:52        1.57        2.51       0.024
  HS02004830           JUNCTION      0.15   671.13     0  01:43     0.00432        1.18       0.115
  HS02004837           JUNCTION    515.19   890.91     0  01:43        1.02        1.53       0.036
  HS02004842           JUNCTION      0.00   878.99     0  01:44           0       0.877       1.526
  HS02004848           JUNCTION    661.34  1127.03     0  01:45        1.56        2.21      -0.010
  HS02004852           JUNCTION      0.00  1103.52     0  01:45           0        1.99       0.007
  HS02004856           JUNCTION    229.83  1228.15     0  01:45       0.366        2.35       0.018
  HS02004862           JUNCTION    306.39  1293.68     0  01:45        0.66        3.01      -0.017
  HS02004870           JUNCTION    307.76  1390.97     0  01:45       0.486        3.47      -0.010
  HS02004876           JUNCTION    299.25  1512.09     0  01:53       0.504        3.97       0.016
  HS02004881           JUNCTION    168.05  1664.52     0  01:50       0.257        4.23      -0.004
  HS02004901           JUNCTION    467.22   716.72     0  01:50       0.757        1.18       0.133
  WS02001211           JUNCTION      7.35   208.00     0  01:41       0.212        5.44       0.612
  WS02001212           JUNCTION      0.00   207.18     0  02:45           0        5.41       0.291
  WS02001213           JUNCTION      0.00   210.53     0  02:45           0        5.39       0.331
  WS02003059           JUNCTION      0.00   213.79     0  02:45           0        5.39       0.596
  WS02003060           JUNCTION     16.53  1535.38     0  01:53       0.476        15.5       0.096
  WS02003066           JUNCTION      0.00  1333.83     0  01:50           0         9.7       0.016
  WS02003067           JUNCTION      0.00  1333.97     0  01:50           0        9.71       0.046
  WS02003069           JUNCTION      0.32  1535.34     0  01:54     0.00922        15.5       0.100
  WS02003072           JUNCTION      0.00  1535.03     0  01:54           0        15.5       0.136
  WS02003073           JUNCTION      1.82  1536.79     0  01:55      0.0524        15.5       0.140
  WS02004138           JUNCTION      0.00   190.00     0  00:29           0        5.25       0.054
  WS02004139           JUNCTION      0.32   190.32     0  00:32     0.00924        5.26       0.507
  WS02004401           JUNCTION      0.00  1335.49     0  01:50           0        9.82       0.118
  WS02004402           JUNCTION      0.00  1335.53     0  01:50           0        9.81       0.114
  WS02004403           JUNCTION      0.00  1335.44     0  01:50           0         9.8       0.111
  WS02004404           JUNCTION      0.16  1335.01     0  01:50     0.00467         9.8       0.091
  WS02004405           JUNCTION      0.04  1334.67     0  01:50      0.0011        9.79       0.131
  WS02004406           JUNCTION      0.00  1335.24     0  01:50           0        9.77       0.222
  WS02004407           JUNCTION      0.00  1335.46     0  01:50           0        9.75       0.016
  WS02004409           JUNCTION      0.00  1333.99     0  01:50           0        9.75       0.033
  WS02004410           JUNCTION      0.00  1334.04     0  01:50           0        9.74       0.051
  WS02004411           JUNCTION      0.00  1334.03     0  01:50           0        9.74       0.063
  WS02004412           JUNCTION      0.00  1333.91     0  01:50           0        9.73       0.084
  WS02004413           JUNCTION      0.00  1333.80     0  01:50           0        9.72       0.140
  WS02006109           JUNCTION      1.23  1308.01     0  00:00      0.0354        9.54       0.118
  WS02006110           JUNCTION      0.00  1123.50     0  02:15           0        9.15      -0.385
  WS02006111           JUNCTION      0.00  1176.04     0  00:00           0        9.18      -0.411
  WS02006112           JUNCTION    379.39  2307.30     0  00:00       0.621        9.84      -0.003
  WS02006113           JUNCTION      0.00  1123.40     0  02:15           0        9.14      -0.498
  WS02006115           JUNCTION      0.00  2152.75     0  00:00           0        9.82       0.047
  WS02006116           JUNCTION      0.00  1334.98     0  01:50           0        9.82      -0.015
  WS02006228           JUNCTION      0.00  1288.95     0  01:48           0        9.49       0.065
  WS02006229           JUNCTION      0.00  2306.34     0  01:47           0        12.3       0.083
  WS02006230           JUNCTION     10.28  1027.40     0  01:47       0.296        5.23       0.110
  WS02006231           JUNCTION      0.00   453.25     0  01:45           0        3.75      -0.131
  WS02006232           JUNCTION      0.00   453.34     0  02:08           0        3.76       0.137
  WS02006234           JUNCTION      0.00   453.18     0  01:47           0        3.75      -0.070
  WS02006235           JUNCTION      0.00   418.19     0  02:00           0        3.78       0.128
  WS02006238           JUNCTION      0.00   415.67     0  02:15           0        3.43      -0.136
  WS02006239           JUNCTION      0.00   415.14     0  02:15           0        3.42      -0.168
  WS02006240           JUNCTION      0.00   414.84     0  02:15           0        3.42       0.025
  WS02006242           JUNCTION      0.00   428.47     0  01:28           0        3.42       0.076
  WS02006243           JUNCTION      0.00   454.56     0  01:28           0        2.94       0.005
  WS02006245           JUNCTION      0.00   473.17     0  01:27           0        2.95       0.244
  WS02006247           JUNCTION      0.00   474.17     0  01:28           0        2.95       0.031
  WS02006248           JUNCTION      0.00   487.93     0  01:27           0        3.29      -0.007
  WS02006249           JUNCTION      0.00  1379.86     0  01:50           0        6.53       0.095
  WS02006251           JUNCTION      0.08  1710.57     0  01:50     0.00222        6.77       0.018
  WS02006252           JUNCTION      0.00   532.80     0  01:50           0        2.84      -0.318
  WS02006253           JUNCTION     44.21  1708.75     0  01:50      0.0619        4.31      -0.002
  WS02006256           JUNCTION      0.00   300.00     0  01:35           0        1.54      -0.020
  WS02006280           JUNCTION      0.00  2305.83     0  01:48           0        9.99       0.009
  WS02006284           JUNCTION      0.10  2305.80     0  01:48     0.00275        9.99      -0.002
  WS02006287           JUNCTION      0.00  2306.37     0  01:48           0        9.99       0.007
  WSF200               JUNCTION      0.00  1333.94     0  01:50           0         9.7       0.008
  YS02001580           JUNCTION      0.00   122.53     0  01:42           0     0.00427      -1.358
  YS02001583           JUNCTION      0.00   181.08     0  01:42           0      0.0153      -4.708
  YS02001586           JUNCTION    836.63   836.74     0  01:53        2.08        2.09       0.058
  YS02001590           JUNCTION      0.00   318.11     0  01:54           0        1.53      -0.020
  YS02001593           JUNCTION      0.00   317.99     0  01:54           0        1.53       0.007
  YS02001596           JUNCTION      0.00   317.91     0  01:54           0        1.53      -0.013
  YS02001600           JUNCTION      0.00   317.95     0  01:54           0        1.53      -0.006
  YS02001601           JUNCTION   1515.29  1832.84     0  01:51        2.84        4.37       0.012
  YS02001602           JUNCTION      0.00   527.20     0  01:42           0        2.55       0.014
  YS02001605           JUNCTION      0.00   526.59     0  01:42           0        2.41       0.017
  YS02001607           JUNCTION      0.00   525.58     0  01:42           0        2.41       0.077
  YS02001610           JUNCTION      0.00   837.39     0  01:53           0        2.79       0.073
  YS02001613           JUNCTION      0.00   537.80     0  01:42           0        2.23       0.072
  YS02001616           JUNCTION      0.00   542.77     0  01:42           0        2.23       0.011
  YS02001619           JUNCTION   1486.55  1486.55     0  01:52        3.34        5.19      -0.006
  YS02001622           JUNCTION      0.00   993.54     0  01:51           0        4.81      -0.005
  YS02001625           JUNCTION      0.00  1405.59     0  01:54           0        5.05       0.238
  YS02001629           JUNCTION      0.00   942.44     0  01:42           0        4.07      -0.040
  YS02001633           JUNCTION   1138.92  1388.58     0  01:44        2.08        5.82       0.054
  YS02001641           JUNCTION      0.00  1387.76     0  01:45           0        5.51       0.048
  YS02001644           JUNCTION   1020.23  1840.50     0  01:45         1.8        7.31       0.041
  YS02001647           JUNCTION      0.00  1841.26     0  01:45           0        6.76      -0.002
  YS02001649           JUNCTION      0.00  2101.29     0  01:45           0        8.42       0.000
  YS02001652           JUNCTION      0.00  1019.19     0  01:50           0        1.66      -0.078
  YS02001655           JUNCTION      0.15  1019.07     0  01:50     0.00443        1.66       0.026
  YS02001658           JUNCTION      0.00  1018.86     0  01:50           0        1.65      -0.084
  YS02001661           JUNCTION      0.00  1018.93     0  01:50           0        1.65       0.013
  YS02001664           JUNCTION    994.36   994.36     0  01:50        1.65        1.65      -0.012
  YS02001745           JUNCTION    643.60   643.60     0  01:50       0.995       0.996       0.170
  YS02001748           JUNCTION      0.04   660.51     0  01:50      0.0013       0.998      -0.339
  YS02001751           JUNCTION      0.01   661.08     0  01:50    0.000317        1.01       0.062
  YS02001754           JUNCTION      0.26   661.12     0  01:50     0.00749        1.02      -0.118
  YS02001757           JUNCTION      0.00  3483.82     0  01:53           0        12.6       0.014
  YS02001759           JUNCTION    892.63  1449.53     0  01:47        1.38        3.21      -0.011
  YS02001762           JUNCTION      0.00   832.23     0  01:57           0        1.83      -0.004
  YS02001765           JUNCTION      0.00   831.44     0  01:57           0        1.83      -0.005
  YS02001767           JUNCTION      0.54   831.17     0  01:57      0.0154        1.83       0.009
  YS02001770           JUNCTION   1248.70  1248.70     0  01:51        2.09        2.14      -0.006
  YS02001774           JUNCTION      0.00   709.78     0  01:50           0       0.347       0.274
  YS02001779           JUNCTION      0.01   709.49     0  01:50    0.000144       0.299      -0.106
  YS02001783           JUNCTION      0.00  1169.62     0  01:48           0        4.64       0.006
  YS02001784           JUNCTION      1.06  1170.43     0  01:48      0.0305        4.67       0.011
  YS02001786           JUNCTION      0.06  1170.67     0  01:48     0.00162        4.67       0.013
  YS02001788           JUNCTION      0.07  1170.40     0  01:48     0.00204        4.67       0.006
  YS02001790           JUNCTION      0.15  1185.00     0  01:48     0.00446        4.67       0.007
  YS02001791           JUNCTION      0.00  1297.02     0  01:50           0        4.67      -0.009
  YS02001793           JUNCTION      0.00  1258.05     0  01:50           0        4.67       0.005
  YS02001882           JUNCTION      0.00    62.57     0  01:43           0      0.0128       4.943
  YS02001884           JUNCTION      0.00    68.39     0  01:42           0      0.0487       5.222
  YS02001887           JUNCTION    965.99   965.99     0  01:50        1.43        1.47       0.307
  YS02001890           JUNCTION      0.00   966.58     0  01:50           0        1.42       0.356
  YS02001895           JUNCTION      0.00   517.75     0  01:54           0        1.25       0.140
  YS02001898           JUNCTION      0.00   517.41     0  01:56           0        1.24      -0.010
  YS02001901           JUNCTION      0.00   517.33     0  01:56           0        1.25       0.259
  YS02001904           JUNCTION      0.00   517.58     0  01:52           0        1.25       0.221
  YS02001907           JUNCTION      0.00  2271.73     0  01:50           0        4.39       0.401
  YS02001910           JUNCTION      0.00  1635.09     0  01:52           0        3.12       0.229
  YS02001915           JUNCTION   1103.32  1634.76     0  01:52        1.99        3.16       0.048
  YS02001918           JUNCTION      0.00   543.17     0  01:52           0         1.2       0.008
  YS02001920           JUNCTION      2.87   543.29     0  01:52      0.0827        1.19       0.085
  YS02001923           JUNCTION      0.04   551.16     0  01:45     0.00109        1.09      -0.064
  YS02001926           JUNCTION      0.05   652.76     0  01:45      0.0015        1.07      -0.043
  YS02001929           JUNCTION    533.33   533.33     0  01:52        1.05        1.05      -0.017
  YS02006553           JUNCTION      0.00   794.34     0  02:12           0        2.63       0.454
  YS02006556           JUNCTION      0.00   793.55     0  02:12           0        2.64       0.303
  YS02006558           JUNCTION   1283.01  1283.01     0  01:50         2.1        4.69       0.080
  YS02006561           JUNCTION      0.00  1176.53     0  01:45           0        4.64      -0.006
  YS02163301           JUNCTION      0.00   927.46     0  01:44           0        4.06       0.030
  YS02163601           JUNCTION      0.11  1388.69     0  01:44     0.00317        5.51       0.082
  YS02164001           JUNCTION      0.00  1388.30     0  01:44           0        5.51       0.032
  YSB1154              JUNCTION    515.16   515.16     0  01:51       0.865       0.866       0.165
  YSB1171              JUNCTION      0.00  1196.59     0  01:50           0         1.7       0.356
  YSB1174              JUNCTION    454.05   454.05     0  01:50       0.661       0.661       0.189
  YSB6556              JUNCTION      0.00   515.18     0  01:50           0       0.867       0.133
  CC-1                 OUTFALL       0.00   683.00     0  00:05           0        6.08       0.000
  CC-2                 OUTFALL       0.00   683.00     0  00:05           0        6.64       0.000
  JK-1                 OUTFALL       0.00  1000.00     0  00:05           0        3.39       0.000
  JK-2                 OUTFALL       0.00  1000.00     0  01:35           0        2.84       0.000
  WSC                  OUTFALL       0.00  1536.65     0  01:55           0        15.5       0.000
  CC-storage           STORAGE       0.00  3483.74     0  01:53           0        14.9      -3.170
  JK-storage           STORAGE       0.00  1309.38     0  01:50           0        4.82     -37.893
  XR-storage           STORAGE     200.00   200.00     0  00:00        5.76        6.36       0.001
  
  
  **********************
  Node Surcharge Summary
  **********************
  
  Surcharging occurs when water rises above the top of the highest conduit.
  ---------------------------------------------------------------------
                                               Max. Height   Min. Depth
                                   Hours       Above Crown    Below Rim
  Node                 Type      Surcharged         Meters       Meters
  ---------------------------------------------------------------------
  HS02004478           JUNCTION        0.61          0.678        0.262
  HS02004479           JUNCTION        0.76          1.004        0.046
  HS02004480           JUNCTION        0.81          1.039        0.061
  HS02004770           JUNCTION        0.70          0.720        0.000
  HS02004777           JUNCTION        0.71          0.780        0.000
  HS02004785           JUNCTION        0.65          0.790        0.000
  HS02004788           JUNCTION        0.64          0.720        0.000
  HS02004792           JUNCTION        0.77          0.900        0.000
  HS02004799           JUNCTION        0.91          1.060        0.000
  HS02004802           JUNCTION        0.81          1.096        0.114
  HS02004807           JUNCTION        0.80          1.220        0.000
  HS02004817           JUNCTION        1.52          1.740        0.000
  HS02004824           JUNCTION        0.63          1.310        0.000
  HS02004830           JUNCTION        0.60          1.328        0.002
  HS02004837           JUNCTION        0.55          1.285        0.055
  HS02004842           JUNCTION        0.71          1.520        0.000
  HS02004848           JUNCTION        0.52          1.331        0.039
  HS02004852           JUNCTION        0.55          1.420        0.000
  HS02004856           JUNCTION        0.52          1.300        0.000
  HS02004862           JUNCTION        0.56          1.300        0.000
  HS02004870           JUNCTION        0.58          1.400        0.000
  HS02004876           JUNCTION        0.64          1.493        0.067
  HS02004881           JUNCTION        0.62          1.450        0.000
  HS02004901           JUNCTION        0.71          0.720        0.000
  WS02004401           JUNCTION        1.82          0.957        0.703
  WS02004402           JUNCTION        1.84          0.891        0.849
  WS02004403           JUNCTION        1.85          0.817        1.213
  WS02004404           JUNCTION        1.92          0.824        1.956
  WS02004405           JUNCTION        1.91          0.772        2.028
  WS02004406           JUNCTION        1.89          0.847        1.603
  WS02004409           JUNCTION        1.30          0.464        1.896
  WS02004410           JUNCTION        1.18          0.364        2.176
  WS02004411           JUNCTION        1.08          0.226        2.304
  WS02004412           JUNCTION        0.96          0.123        2.187
  WS02004413           JUNCTION        1.59          0.155        2.045
  WS02006109           JUNCTION        2.18          1.820        0.000
  WS02006110           JUNCTION        1.98          1.536        0.314
  WS02006111           JUNCTION        1.57          1.085        0.785
  WS02006112           JUNCTION        2.06          1.680        0.000
  WS02006113           JUNCTION        1.59          1.119        0.811
  WS02006115           JUNCTION        1.75          1.098        1.152
  WS02006116           JUNCTION        1.77          1.004        1.286
  WS02006228           JUNCTION        2.17          2.200        0.000
  WS02006229           JUNCTION        1.11          1.056        0.014
  WS02006230           JUNCTION        1.92          1.570        0.000
  WS02006231           JUNCTION        1.95          1.498        0.032
  WS02006232           JUNCTION        2.06          1.480        0.000
  WS02006234           JUNCTION        1.96          1.240        0.000
  WS02006235           JUNCTION        1.98          1.290        0.000
  WS02006238           JUNCTION        2.01          1.306        0.124
  WS02006239           JUNCTION        1.96          1.260        0.030
  WS02006240           JUNCTION        1.95          1.390        0.000
  WS02006242           JUNCTION        1.99          0.820        0.000
  WS02006243           JUNCTION        1.95          0.770        0.000
  WS02006245           JUNCTION        1.94          0.850        0.000
  WS02006247           JUNCTION        1.94          0.668        0.092
  WS02006248           JUNCTION        1.90          0.380        0.000
  WS02006249           JUNCTION        1.92          0.390        0.000
  WS02006251           JUNCTION        1.77          1.180        0.000
  WS02006252           JUNCTION        1.89          1.100        0.000
  WS02006253           JUNCTION        1.78          2.480        0.000
  WS02006256           JUNCTION        7.48          2.050        0.000
  WS02006280           JUNCTION        0.95          0.699        0.081
  WS02006284           JUNCTION        0.84          0.691        0.109
  WS02006287           JUNCTION        0.72          0.755        0.135
  YS02001580           JUNCTION        0.77          0.450        0.000
  YS02001583           JUNCTION        0.78          0.500        0.000
  YS02001586           JUNCTION        0.93          0.510        0.000
  YS02001590           JUNCTION        1.02          0.750        0.000
  YS02001593           JUNCTION        1.02          0.696        0.144
  YS02001596           JUNCTION        1.18          0.962        0.108
  YS02001600           JUNCTION        1.43          1.190        0.000
  YS02001601           JUNCTION        1.71          1.440        0.000
  YS02001602           JUNCTION        1.63          1.270        0.000
  YS02001605           JUNCTION        1.59          1.180        0.000
  YS02001607           JUNCTION        1.04          0.662        0.018
  YS02001610           JUNCTION        1.08          0.680        0.000
  YS02001613           JUNCTION        1.03          0.692        0.008
  YS02001616           JUNCTION        0.96          0.610        0.000
  YS02001619           JUNCTION        0.94          0.610        0.000
  YS02001622           JUNCTION        0.94          0.620        0.000
  YS02001625           JUNCTION        1.28          0.780        0.000
  YS02001629           JUNCTION        0.88          0.470        0.000
  YS02001633           JUNCTION        1.39          1.060        0.000
  YS02001641           JUNCTION        1.37          0.949        0.151
  YS02001644           JUNCTION        1.34          0.920        0.000
  YS02001647           JUNCTION        0.84          0.813        0.087
  YS02001649           JUNCTION        1.30          1.050        0.000
  YS02001652           JUNCTION        0.58          1.130        0.000
  YS02001655           JUNCTION        0.34          1.157        0.043
  YS02001658           JUNCTION        0.22          1.300        0.000
  YS02001661           JUNCTION        0.08          0.747        0.643
  YS02001745           JUNCTION        0.01          1.350        0.000
  YS02001748           JUNCTION        0.13          1.190        0.000
  YS02001751           JUNCTION        0.24          1.200        0.000
  YS02001754           JUNCTION        0.36          1.150        0.000
  YS02001757           JUNCTION        1.48          1.210        0.000
  YS02001759           JUNCTION        1.30          1.193        0.017
  YS02001762           JUNCTION        1.21          1.150        0.000
  YS02001765           JUNCTION        0.88          1.100        0.000
  YS02001767           JUNCTION        0.80          1.030        0.000
  YS02001770           JUNCTION        0.63          0.920        0.000
  YS02001774           JUNCTION        1.11          1.023        0.027
  YS02001779           JUNCTION        0.38          0.680        0.000
  YS02001783           JUNCTION        0.65          0.670        0.930
  YS02001784           JUNCTION        0.63          0.452        1.038
  YS02001786           JUNCTION        0.51          0.222        1.208
  YS02001882           JUNCTION        0.59          0.830        0.000
  YS02001884           JUNCTION        0.60          0.870        0.000
  YS02001887           JUNCTION        0.65          0.950        0.000
  YS02001890           JUNCTION        0.66          0.760        0.000
  YS02001895           JUNCTION        0.58          0.750        0.000
  YS02001898           JUNCTION        0.57          0.740        0.000
  YS02001901           JUNCTION        0.63          0.870        0.000
  YS02001904           JUNCTION        0.62          0.850        0.000
  YS02001907           JUNCTION        0.89          0.950        0.000
  YS02001910           JUNCTION        0.69          1.035        0.065
  YS02001915           JUNCTION        0.59          1.000        0.000
  YS02001918           JUNCTION        0.50          0.810        0.000
  YS02001920           JUNCTION        0.51          1.140        0.000
  YS02001923           JUNCTION        0.16          0.820        0.000
  YS02001926           JUNCTION        0.19          0.900        0.000
  YS02001929           JUNCTION        0.02          0.780        0.000
  YS02006553           JUNCTION        0.92          1.190        0.000
  YS02006556           JUNCTION        0.79          1.350        0.000
  YS02006558           JUNCTION        0.78          1.346        0.054
  YS02006561           JUNCTION        0.46          0.384        0.766
  YS02163301           JUNCTION        1.35          0.963        0.067
  YS02163601           JUNCTION        1.44          1.063        0.017
  YS02164001           JUNCTION        1.35          0.952        0.148
  YSB1154              JUNCTION        1.08          1.400        0.000
  YSB1171              JUNCTION        1.08          1.100        0.000
  YSB1174              JUNCTION        0.95          1.250        0.000
  YSB6556              JUNCTION        0.87          1.100        0.000
  
  
  *********************
  Node Flooding Summary
  *********************
  
  Flooding refers to all water that overflows a node, whether it ponds or not.
  --------------------------------------------------------------------------
                                                             Total   Maximum
                                 Maximum   Time of Max       Flood    Ponded
                        Hours       Rate    Occurrence      Volume     Depth
  Node                 Flooded       LPS   days hr:min    10^6 ltr    Meters
  --------------------------------------------------------------------------
  HS02004770              0.46   1489.62      0  01:51       1.135     0.000
  HS02004777              0.01     56.93      0  01:43       0.000     0.000
  HS02004785              0.01    138.03      0  01:42       0.000     0.000
  HS02004788              0.01    250.79      0  01:42       0.001     0.000
  HS02004792              0.48   2026.69      0  01:51       1.772     0.000
  HS02004799              0.25    294.89      0  01:50       0.167     0.000
  HS02004807              0.18    529.94      0  01:50       0.227     0.000
  HS02004824              0.10    111.98      0  01:52       0.028     0.000
  HS02004842              0.10     93.91      0  01:51       0.021     0.000
  HS02004852              0.01    121.94      0  01:45       0.000     0.000
  HS02004856              0.01    363.46      0  01:45       0.003     0.000
  HS02004862              0.09    381.10      0  01:45       0.027     0.000
  HS02004870              0.01    440.69      0  01:45       0.001     0.000
  HS02004881              0.01    270.63      0  01:45       0.000     0.000
  HS02004901              0.56    716.72      0  01:50       0.915     0.000
  WS02006109              0.53    335.95      0  01:50       0.356     0.000
  WS02006112              0.01   1153.65      0  00:00       0.035     0.000
  WS02006228              0.01      3.72      0  01:43       0.000     0.000
  WS02006230              0.85    574.55      0  01:47       1.204     0.000
  WS02006232              0.22      0.63      0  02:01       0.000     0.000
  WS02006234              0.94    128.62      0  01:50       0.340     0.000
  WS02006235              0.01      6.54      0  01:30       0.000     0.000
  WS02006240              0.01    157.92      0  01:28       0.000     0.000
  WS02006242              1.08    152.80      0  01:28       0.483     0.000
  WS02006243              0.01    113.85      0  01:28       0.001     0.000
  WS02006245              0.01    122.93      0  01:28       0.000     0.000
  WS02006248              1.55    343.94      0  01:39       1.563     0.000
  WS02006249              1.77   1318.67      0  01:50       4.467     0.000
  WS02006251              0.01     59.85      0  01:45       0.000     0.000
  WS02006252              0.40    532.08      0  01:50       0.390     0.000
  WS02006253              0.01    116.12      0  01:45       0.000     0.000
  WS02006256              1.30    289.61      0  02:25       0.831     0.000
  YS02001580              0.01    104.12      0  01:42       0.000     0.000
  YS02001583              0.01    109.98      0  01:42       0.000     0.000
  YS02001586              0.63    519.27      0  01:53       0.549     0.000
  YS02001590              0.01      3.10      0  01:42       0.000     0.000
  YS02001600              0.01      1.11      0  01:42       0.000     0.000
  YS02001601              0.84   1434.97      0  01:51       1.822     0.000
  YS02001602              0.66     61.96      0  02:04       0.132     0.000
  YS02001605              0.01      5.93      0  01:42       0.000     0.000
  YS02001610              0.57    837.35      0  01:53       0.935     0.000
  YS02001616              0.01     16.95      0  01:42       0.000     0.000
  YS02001619              0.01     12.35      0  01:42       0.000     0.000
  YS02001622              0.01      0.32      0  01:45       0.000     0.000
  YS02001625              0.49   1405.45      0  01:54       1.280     0.000
  YS02001629              0.15    330.15      0  01:49       0.093     0.000
  YS02001633              0.01      0.24      0  01:50       0.000     0.000
  YS02001644              0.20   1254.03      0  01:50       0.536     0.000
  YS02001649              0.01    135.55      0  01:47       0.001     0.000
  YS02001652              0.01     54.71      0  01:47       0.000     0.000
  YS02001658              0.01    383.19      0  01:47       0.000     0.000
  YS02001745              0.01    147.52      0  01:47       0.000     0.000
  YS02001748              0.01    286.26      0  01:47       0.000     0.000
  YS02001751              0.01    210.54      0  01:46       0.000     0.000
  YS02001754              0.01     54.57      0  01:47       0.000     0.000
  YS02001757              0.01     28.15      0  01:47       0.000     0.000
  YS02001762              0.01     14.53      0  01:47       0.000     0.000
  YS02001765              0.01     11.42      0  01:47       0.000     0.000
  YS02001767              0.01      5.44      0  01:47       0.000     0.000
  YS02001770              0.01     59.69      0  01:47       0.001     0.000
  YS02001779              0.18    709.35      0  01:50       0.276     0.000
  YS02001882              0.01      2.80      0  01:45       0.000     0.000
  YS02001884              0.01      3.31      0  01:45       0.000     0.000
  YS02001887              0.01      3.01      0  01:45       0.000     0.000
  YS02001890              0.21    452.31      0  01:50       0.173     0.000
  YS02001895              0.01      2.26      0  01:45       0.000     0.000
  YS02001898              0.01      3.80      0  01:45       0.000     0.000
  YS02001901              0.01      2.21      0  01:45       0.000     0.000
  YS02001904              0.01      2.98      0  01:45       0.000     0.000
  YS02001907              0.44   2271.25      0  01:50       1.771     0.000
  YS02001915              0.01      0.73      0  01:50       0.000     0.000
  YS02001918              0.01    255.47      0  01:46       0.003     0.000
  YS02001920              0.01     12.55      0  01:45       0.000     0.000
  YS02001923              0.01    481.36      0  01:45       0.003     0.000
  YS02001926              0.01    441.61      0  01:45       0.001     0.000
  YS02001929              0.01    192.34      0  01:45       0.000     0.000
  YS02006553              0.01      1.63      0  01:45       0.000     0.000
  YS02006556              0.01      1.95      0  01:45       0.000     0.000
  YSB1154                 0.01      0.12      0  01:45       0.000     0.000
  YSB1171                 0.36   1196.38      0  01:50       0.890     0.000
  YSB1174                 0.01      0.32      0  01:45       0.000     0.000
  YSB6556                 0.01     14.64      0  01:43       0.000     0.000
  
  
  **********************
  Storage Volume Summary
  **********************
  
  ------------------------------------------------------------------------------------------------
                         Average    Avg   Evap  Exfil     Maximum    Max    Time of Max    Maximum
                          Volume   Pcnt   Pcnt   Pcnt      Volume   Pcnt     Occurrence    Outflow
  Storage Unit           1000 m   Full   Loss   Loss     1000 m   Full    days hr:min        LPS
  ------------------------------------------------------------------------------------------------
  CC-storage               1.789   27.9    0.0    0.0       4.971   77.6       0  03:00    1566.00
  JK-storage               0.004    1.3    0.0    0.0       0.151   51.7       0  00:05    2300.00
  XR-storage               0.947   65.7    0.0    0.0       1.111   77.1       0  08:00     190.00
  
  
  ***********************
  Outfall Loading Summary
  ***********************
  
  -----------------------------------------------------------
                         Flow       Avg       Max       Total
                         Freq      Flow      Flow      Volume
  Outfall Node           Pcnt       LPS       LPS    10^6 ltr
  -----------------------------------------------------------
  CC-1                  49.53    623.02    683.00       6.085
  CC-2                  81.88    432.50    683.00       6.643
  JK-1                  75.65    181.50   1000.00       3.389
  JK-2                  41.49    277.17   1000.00       2.840
  WSC                  100.00    625.78   1536.65      15.509
  -----------------------------------------------------------
  System                69.71   2139.97   4125.39      34.467
  
  
  ********************
  Link Flow Summary
  ********************
  
  -----------------------------------------------------------------------------
                                 Maximum  Time of Max   Maximum    Max/    Max/
                                  |Flow|   Occurrence   |Veloc|    Full    Full
  Link                 Type          LPS  days hr:min     m/sec    Flow   Depth
  -----------------------------------------------------------------------------
  1                    CONDUIT   1536.65     0  01:55      3.72    0.54    0.52
  HS02004478WS02006287 CONDUIT   2306.37     0  01:48      2.57    0.65    1.00
  HS02004479HS02004480 CONDUIT    497.01     0  01:45      0.71    0.48    1.00
  HS02004480HS02004478 CONDUIT   2131.48     0  01:43      3.04    8.98    1.00
  HS02004770HS02004777 CONDUIT    777.22     0  01:42      1.11    1.42    1.00
  HS02004777HS02004785 CONDUIT    780.45     0  01:42      1.16    0.96    1.00
  HS02004785HS02004788 CONDUIT    626.00     0  01:42      1.35    4.72    1.00
  HS02004788HS02004792 CONDUIT    870.72     0  01:50      1.44    0.58    1.00
  HS02004792HS02004799 CONDUIT   1577.98     0  01:43      2.25    0.97    1.00
  HS02004799HS02004480 CONDUIT   1753.49     0  01:43      2.50    2.22    1.00
  HS02004802HS02004478 CONDUIT   1233.26     0  01:55      1.76    1.09    1.00
  HS02004807HS02004802 CONDUIT   1232.96     0  01:57      1.76    2.35    1.00
  HS02004817HS02004807 CONDUIT   1196.82     0  01:54      1.71    0.71    1.00
  HS02004817HS02004824 CONDUIT   1196.23     0  01:54      1.71    0.54    1.00
  HS02004824HS02004830 CONDUIT    670.98     0  01:43      0.96    0.88    1.00
  HS02004830HS02004837 CONDUIT    691.74     0  01:43      1.08    0.69    1.00
  HS02004837HS02004842 CONDUIT    878.99     0  01:44      1.26    0.52    1.00
  HS02004842HS02004848 CONDUIT    878.42     0  01:44      1.41    0.51    1.00
  HS02004848HS02004852 CONDUIT   1103.52     0  01:45      1.64    1.24    1.00
  HS02004852HS02004856 CONDUIT   1116.52     0  01:45      1.60    1.28    1.00
  HS02004856HS02004862 CONDUIT   1154.44     0  01:45      1.72    1.15    1.00
  HS02004862HS02004870 CONDUIT   1237.32     0  01:45      1.93    1.34    1.00
  HS02004870HS02004876 CONDUIT   1246.65     0  01:54      1.82    0.83    1.00
  HS02004876HS02004881 CONDUIT   1511.84     0  01:53      2.43   16.08    1.00
  HS02004881HS02006253 CONDUIT   1665.17     0  01:50      2.38    0.33    1.00
  HS02004901HS02004770 CONDUIT    265.79     0  02:10      0.38    1.00    1.00
  WS02001211WS02001212 CONDUIT    207.18     0  02:45      0.54    0.16    0.70
  WS02001212WS02001213 CONDUIT    210.53     0  02:45      1.03    0.32    0.57
  WS02001213WS02003059 CONDUIT    213.79     0  02:45      0.47    0.35    0.90
  WS02003059WS02003060 CONDUIT    219.46     0  03:24      0.65    0.14    0.82
  WS02003060WS02003069 CONDUIT   1535.02     0  01:54      2.09    0.60    0.62
  WS02003066WSF200     CONDUIT   1333.94     0  01:50      3.27    0.23    0.39
  WS02003067WS02003066 CONDUIT   1333.83     0  01:50      2.03    0.43    0.56
  WS02003069WS02003072 CONDUIT   1535.03     0  01:54      1.91    0.74    0.67
  WS02003072WS02003073 CONDUIT   1534.97     0  01:55      2.07    3.32    0.62
  WS02004138WS02004139 CONDUIT    190.00     0  00:32      2.17    0.04    0.42
  WS02004139WS02001211 CONDUIT    200.65     0  01:41      0.55    0.25    0.61
  WS02004401WS02004402 CONDUIT   1335.53     0  01:50      2.07    1.60    1.00
  WS02004402WS02004403 CONDUIT   1335.44     0  01:50      1.84    1.92    1.00
  WS02004403WS02004404 CONDUIT   1334.85     0  01:50      1.70    0.96    1.00
  WS02004404WS02004405 CONDUIT   1334.63     0  01:50      1.86   13.08    1.00
  WS02004405WS02004406 CONDUIT   1335.24     0  01:50      1.80    2.63    1.00
  WS02004406WS02004407 CONDUIT   1335.46     0  01:50      1.71    0.60    0.99
  WS02004407WS02004409 CONDUIT   1333.99     0  01:50      1.97    0.47    0.99
  WS02004409WS02004410 CONDUIT   1334.04     0  01:50      1.70    1.73    1.00
  WS02004410WS02004411 CONDUIT   1334.03     0  01:50      1.70    1.82    1.00
  WS02004411WS02004412 CONDUIT   1333.91     0  01:50      1.70    1.89    1.00
  WS02004412WS02004413 CONDUIT   1333.80     0  01:50      1.70    0.89    1.00
  WS02004413WS02003067 CONDUIT   1333.97     0  01:50      2.05    0.57    0.77
  WS02006109WS02006110 CONDUIT   1306.78     0  00:00      3.15    2.51    1.00
  WS02006110WS02006113 CONDUIT   1123.40     0  02:15      2.23    1.02    1.00
  WS02006111WS02006112 CONDUIT   2307.30     0  00:00      9.18    1.10    1.00
  WS02006112WS02006115 CONDUIT   2152.75     0  00:00      2.85    1.27    1.00
  WS02006113WS02006111 CONDUIT   1176.04     0  00:00      2.76    1.41    1.00
  WS02006115WS02006116 CONDUIT   1334.98     0  01:50      1.81    1.71    1.00
  WS02006116WS02004401 CONDUIT   1335.49     0  01:50      2.21    1.84    1.00
  WS02006228WS02006109 CONDUIT   1288.77     0  01:48      2.56    5.63    1.00
  WS02006229WS02006228 CONDUIT   1288.95     0  01:48      2.56    4.27    1.00
  WS02006230WS02006229 CONDUIT   1017.12     0  01:47      2.64   22.64    1.00
  WS02006231WS02006230 CONDUIT    453.25     0  01:45      1.29    6.88    1.00
  WS02006232WS02006231 CONDUIT    453.34     0  02:08      1.18    0.95    1.00
  WS02006234WS02006232 CONDUIT    453.18     0  01:47      1.18    0.92    1.00
  WS02006235WS02006234 CONDUIT    417.59     0  03:15      1.09    4.41    1.00
  WS02006238WS02006235 CONDUIT    415.67     0  02:15      1.23    0.93    1.00
  WS02006239WS02006238 CONDUIT    415.14     0  02:15      1.08    1.33    1.00
  WS02006240WS02006239 CONDUIT    414.84     0  02:15      1.09    1.31    1.00
  WS02006242WS02006240 CONDUIT    414.93     0  01:43      1.11    1.65    1.00
  WS02006243WS02006242 CONDUIT    428.47     0  01:28      1.21    0.92    1.00
  WS02006245WS02006243 CONDUIT    454.56     0  01:28      1.32    1.34    1.00
  WS02006247WS02006245 CONDUIT    473.17     0  01:27      1.28    3.75    1.00
  WS02006248WS02006247 CONDUIT    474.17     0  01:28      1.32    1.03    1.00
  WS02006249WS02006248 CONDUIT    487.93     0  01:27      1.37    2.67    1.00
  WS02006251WS02006249 CONDUIT   1379.86     0  01:50      3.59    3.98    1.00
  WS02006252WS02006251 CONDUIT   1298.45     0  00:05     20.66    4.77    1.00
  WS02006253WS02006251 CONDUIT   1710.50     0  01:50      4.44    5.13    1.00
  WS02006256WS02006235 CONDUIT    191.96     0  04:15      2.72    2.03    1.00
  WS02006280WS02006229 CONDUIT   2306.34     0  01:47      3.98    0.49    1.00
  WS02006284WS02006280 CONDUIT   2305.83     0  01:48      3.02    0.97    1.00
  WS02006287WS02006284 CONDUIT   2305.70     0  01:48      2.94    1.07    1.00
  WSF200WS02003060     CONDUIT   1333.85     0  01:50      2.39    0.30    0.51
  YS02001580YS02001583 CONDUIT    122.53     0  01:42      0.70    0.47    1.00
  YS02001583YS02001586 CONDUIT    168.51     0  01:42      0.73    0.25    1.00
  YS02001586YS02001590 CONDUIT    318.11     0  01:54      1.25    0.56    1.00
  YS02001590YS02001593 CONDUIT    317.99     0  01:54      1.12    2.00    1.00
  YS02001593YS02001596 CONDUIT    317.91     0  01:54      1.67    0.50    1.00
  YS02001596YS02001600 CONDUIT    317.95     0  01:54      1.18    0.62    1.00
  YS02001600YS02001601 CONDUIT    318.04     0  02:00      1.12    0.55    1.00
  YS02001601YS02001602 CONDUIT    527.20     0  01:42      1.86    1.90    1.00
  YS02001602YS02001605 CONDUIT    526.59     0  01:42      1.86   11.14    1.00
  YS02001605YS02001607 CONDUIT    525.58     0  01:42      1.86    2.88    1.00
  YS02001607YS02001610 CONDUIT    533.63     0  01:42      0.68    0.51    1.00
  YS02001610YS02001613 CONDUIT    537.80     0  01:42      0.68    0.62    1.00
  YS02001613YS02001616 CONDUIT    542.77     0  01:42      0.70    0.47    1.00
  YS02001616YS02001619 CONDUIT    507.40     0  01:42      0.68    0.88    1.00
  YS02001619YS02001622 CONDUIT    993.54     0  01:51      1.27    1.46    1.00
  YS02001622YS02001625 CONDUIT    993.51     0  01:51      1.26    0.53    1.00
  YS02001625YS02001629 CONDUIT    942.44     0  01:42      1.20    0.45    1.00
  YS02001629YS02163301 CONDUIT    927.46     0  01:44      1.18    1.14    1.00
  YS02001633YS02163601 CONDUIT   1388.58     0  01:44      1.77    1.46    1.00
  YS02001641YS02001644 CONDUIT   1392.85     0  01:45      1.77    4.50    1.00
  YS02001644YS02001647 CONDUIT   1841.26     0  01:45      2.34    1.08    1.00
  YS02001647YS02001649 CONDUIT   1839.09     0  01:44      2.34    0.97    1.00
  YS02001649YS02001757 CONDUIT   2104.12     0  01:45      2.68    1.28    1.00
  YS02001652YS02001649 CONDUIT   1019.54     0  01:50      1.30    0.51    1.00
  YS02001655YS02001652 CONDUIT   1019.19     0  01:50      1.36    0.49    1.00
  YS02001658YS02001655 CONDUIT   1018.91     0  01:50      1.91    0.43    1.00
  YS02001661YS02001658 CONDUIT   1018.86     0  01:50      2.37    0.40    1.00
  YS02001664YS02001661 CONDUIT   1018.93     0  01:50      2.42    0.32    0.99
  YS02001745YS02001748 CONDUIT    660.46     0  01:50      2.28    0.25    1.00
  YS02001748YS02001751 CONDUIT    661.07     0  01:50      1.74    0.33    1.00
  YS02001751YS02001754 CONDUIT    660.86     0  01:50      1.41    0.32    1.00
  YS02001754YS02001757 CONDUIT    661.28     0  01:50      0.84    0.27    1.00
  YS02001757CaochengTiaoxuchi CONDUIT   3483.74     0  01:53      6.65    1.51    1.00
  YS02001759YS02001757 CONDUIT   1451.17     0  01:47      1.85    1.03    1.00
  YS02001762YS02001759 CONDUIT    833.11     0  01:57      1.06    0.96    1.00
  YS02001765YS02001762 CONDUIT    832.23     0  01:57      1.06    0.78    1.00
  YS02001767YS02001765 CONDUIT    831.44     0  01:57      1.06    1.05    1.00
  YS02001770YS02001767 CONDUIT    830.64     0  01:57      1.06    3.29    1.00
  YS02001774YS02001770 CONDUIT    709.78     0  01:50      0.90    0.45    1.00
  YS02001779YS02001774 CONDUIT    709.48     0  01:50      0.90    0.36    1.00
  YS02001783YS02001784 CONDUIT   1169.37     0  01:48      2.33    1.61    1.00
  YS02001784YS02001785 CONDUIT   1170.61     0  01:48      2.33    2.72    1.00
  YS02001786YS02001788 CONDUIT   1170.32     0  01:48      2.49    2.25    0.89
  YS02001788YS02001790 CONDUIT   1184.85     0  01:48      2.74    0.87    0.84
  YS02001790YS02001791 CONDUIT   1297.02     0  01:50      3.43    1.41    0.71
  YS02001791YS02001793 CONDUIT   1258.05     0  01:50      6.78    0.54    0.43
  YS02001793JiankangQianchi CONDUIT   1309.38     0  01:50     24.86    0.10    0.61
  YS02001882YS02001884 CONDUIT     62.57     0  01:43      0.16    0.07    1.00
  YS02001884YS02001887 CONDUIT     68.39     0  01:42      0.12    0.09    1.00
  YS02001887YS02001890 CONDUIT    966.58     0  01:50      1.23    1.65    1.00
  YS02001890YS02001895 CONDUIT    517.75     0  01:54      0.66    0.24    1.00
  YS02001895YS02001898 CONDUIT    517.41     0  01:56      0.66    0.90    1.00
  YS02001898YS02001901 CONDUIT    517.33     0  01:56      0.66    0.33    1.00
  YS02001901YS02001904 CONDUIT    517.58     0  01:52      0.66    0.80    1.00
  YS02001904YS02001907 CONDUIT    518.70     0  01:54      0.66    0.18    1.00
  YS02001907YS02006553 CONDUIT    794.34     0  02:12      0.88    0.93    1.00
  YS02001910YS02001907 CONDUIT   1635.05     0  01:50      2.08    0.92    1.00
  YS02001915YS02001910 CONDUIT   1635.09     0  01:52      2.08    0.81    1.00
  YS02001918YS02001915 CONDUIT    543.03     0  01:52      0.69    0.30    1.00
  YS02001920YS02001918 CONDUIT    543.17     0  01:52      0.69    0.53    1.00
  YS02001923YS02001920 CONDUIT    540.42     0  01:52      0.70    0.24    1.00
  YS02001926YS02001923 CONDUIT    539.70     0  01:52      0.96    0.77    1.00
  YS02001929YS02001926 CONDUIT    539.48     0  01:52      1.15    0.26    1.00
  YS02006553YS02006556 CONDUIT    793.55     0  02:12      1.01    0.68    1.00
  YS02006556YS02006558 CONDUIT    794.87     0  02:12      1.01    0.63    1.00
  YS02006558YS02006561 CONDUIT   1176.53     0  01:45      4.16    2.60    1.00
  YS02006561YS02001783 CONDUIT   1169.62     0  01:48      2.33    0.61    1.00
  YS02163301YS02001633 CONDUIT    927.90     0  01:44      1.18    0.87    1.00
  YS02163601YS02164001 CONDUIT   1388.30     0  01:44      1.77    1.23    1.00
  YS02164001YS02001641 CONDUIT   1387.76     0  01:45      1.77    1.89    1.00
  YSB1154YSB6556       CONDUIT    515.18     0  01:50      1.34    0.93    1.00
  YSB1171HS02004479    CONDUIT    496.65     0  01:45      0.99    0.33    1.00
  YSB1174YSB1171       CONDUIT    454.27     0  01:50      1.18    0.70    1.00
  YSB6556YSB1171       CONDUIT    515.24     0  01:51      1.34    0.53    1.00
  CC-R1                PUMP       683.00     0  00:05              1.00
  CC-R2                PUMP       683.00     0  00:05              1.00
  CC-S1                PUMP       200.00     0  01:25              1.00
  CC-S2                PUMP       200.00     0  00:05              1.00
  JK-R1                PUMP      1000.00     0  00:05              1.00
  JK-R2                PUMP      1000.00     0  01:35              1.00
  JK-S                 PUMP       300.00     0  01:35              1.00
  XR-1                 PUMP        95.00     0  00:10              1.00
  XR-2                 PUMP        95.00     0  00:29              1.00
  XR-3                 PUMP         0.00     0  00:00              0.00
  XR-4                 PUMP         0.00     0  00:00              0.00
  
  
  ***************************
  Flow Classification Summary
  ***************************
  
  -------------------------------------------------------------------------------------
                      Adjusted    ---------- Fraction of Time in Flow Class ---------- 
                       /Actual         Up    Down  Sub   Sup   Up    Down  Norm  Inlet 
  Conduit               Length    Dry  Dry   Dry   Crit  Crit  Crit  Crit  Ltd   Ctrl  
  -------------------------------------------------------------------------------------
  1                       1.00   0.00  0.00  0.00  0.00  1.00  0.00  0.00  0.57  0.00
  HS02004478WS02006287    1.00   0.15  0.00  0.00  0.68  0.17  0.00  0.00  0.58  0.00
  HS02004479HS02004480    1.00   0.04  0.00  0.00  0.96  0.00  0.00  0.00  0.11  0.00
  HS02004480HS02004478    1.00   0.13  0.00  0.00  0.64  0.00  0.00  0.23  0.00  0.00
  HS02004770HS02004777    1.00   0.00  0.13  0.00  0.87  0.00  0.00  0.00  0.02  0.00
  HS02004777HS02004785    1.00   0.00  0.00  0.00  1.00  0.00  0.00  0.00  0.11  0.00
  HS02004785HS02004788    1.00   0.00  0.00  0.00  1.00  0.00  0.00  0.00  0.00  0.00
  HS02004788HS02004792    1.00   0.00  0.00  0.00  0.99  0.01  0.00  0.00  0.88  0.00
  HS02004792HS02004799    1.00   0.00  0.00  0.00  0.99  0.01  0.00  0.00  0.83  0.00
  HS02004799HS02004480    1.00   0.00  0.03  0.00  0.85  0.00  0.12  0.00  0.00  0.00
  HS02004802HS02004478    1.00   0.13  0.01  0.00  0.86  0.00  0.00  0.00  0.02  0.00
  HS02004807HS02004802    1.00   0.13  0.00  0.00  0.86  0.00  0.00  0.02  0.00  0.00
  HS02004817HS02004807    1.00   0.00  0.13  0.00  0.87  0.00  0.00  0.00  0.01  0.00
  HS02004817HS02004824    1.00   0.00  0.00  0.00  1.00  0.00  0.00  0.00  0.79  0.00
  HS02004824HS02004830    1.00   0.00  0.00  0.00  1.00  0.00  0.00  0.00  0.01  0.00
  HS02004830HS02004837    1.00   0.00  0.00  0.00  1.00  0.00  0.00  0.00  0.86  0.00
  HS02004837HS02004842    1.00   0.00  0.00  0.00  0.99  0.01  0.00  0.00  0.11  0.00
  HS02004842HS02004848    1.00   0.00  0.13  0.00  0.87  0.00  0.00  0.00  0.54  0.00
  HS02004848HS02004852    1.00   0.13  0.00  0.00  0.87  0.00  0.00  0.00  0.70  0.00
  HS02004852HS02004856    1.00   0.13  0.01  0.00  0.86  0.00  0.00  0.00  0.65  0.00
  HS02004856HS02004862    1.00   0.00  0.16  0.00  0.84  0.00  0.00  0.00  0.73  0.00
  HS02004862HS02004870    1.00   0.00  0.00  0.00  1.00  0.00  0.00  0.00  0.03  0.00
  HS02004870HS02004876    1.00   0.00  0.00  0.00  1.00  0.00  0.00  0.00  0.84  0.00
  HS02004876HS02004881    1.00   0.01  0.00  0.00  0.85  0.15  0.00  0.00  0.00  0.00
  HS02004881HS02006253    1.00   0.03  0.02  0.00  0.41  0.01  0.00  0.54  0.32  0.00
  HS02004901HS02004770    1.00   0.13  0.00  0.00  0.87  0.00  0.00  0.00  0.00  0.00
  WS02001211WS02001212    1.00   0.00  0.02  0.00  0.98  0.00  0.00  0.00  0.00  0.00
  WS02001212WS02001213    1.00   0.02  0.00  0.00  0.40  0.00  0.57  0.00  0.00  0.00
  WS02001213WS02003059    1.00   0.00  0.01  0.00  0.99  0.00  0.00  0.00  0.00  0.00
  WS02003059WS02003060    1.00   0.00  0.00  0.00  1.00  0.00  0.00  0.00  0.03  0.00
  WS02003060WS02003069    1.00   0.00  0.00  0.00  0.97  0.03  0.00  0.00  0.44  0.00
  WS02003066WSF200        1.00   0.06  0.00  0.00  0.00  0.94  0.00  0.00  0.67  0.00
  WS02003067WS02003066    1.00   0.05  0.01  0.00  0.94  0.00  0.00  0.00  0.00  0.00
  WS02003069WS02003072    1.00   0.00  0.00  0.00  0.99  0.01  0.00  0.00  0.56  0.00
  WS02003072WS02003073    1.00   0.00  0.00  0.00  0.00  0.00  0.00  1.00  0.00  0.00
  WS02004138WS02004139    1.00   0.02  0.00  0.00  0.97  0.01  0.00  0.00  0.98  0.00
  WS02004139WS02001211    1.00   0.00  0.01  0.00  0.99  0.00  0.00  0.00  0.00  0.00
  WS02004401WS02004402    1.00   0.00  0.00  0.00  1.00  0.00  0.00  0.00  0.00  0.00
  WS02004402WS02004403    1.00   0.00  0.00  0.00  1.00  0.00  0.00  0.00  0.00  0.00
  WS02004403WS02004404    1.00   0.00  0.00  0.00  1.00  0.00  0.00  0.00  0.00  0.00
  WS02004404WS02004405    1.00   0.00  0.00  0.00  1.00  0.00  0.00  0.00  0.01  0.00
  WS02004405WS02004406    1.00   0.00  0.00  0.00  1.00  0.00  0.00  0.00  0.00  0.00
  WS02004406WS02004407    1.00   0.00  0.01  0.00  0.99  0.00  0.00  0.00  0.01  0.00
  WS02004407WS02004409    1.00   0.01  0.00  0.00  0.98  0.01  0.00  0.00  0.82  0.00
  WS02004409WS02004410    1.00   0.01  0.00  0.00  0.99  0.00  0.00  0.00  0.00  0.00
  WS02004410WS02004411    1.00   0.01  0.00  0.00  0.99  0.00  0.00  0.00  0.01  0.00
  WS02004411WS02004412    1.00   0.01  0.00  0.00  0.99  0.00  0.00  0.00  0.00  0.00
  WS02004412WS02004413    1.00   0.01  0.00  0.00  0.99  0.00  0.00  0.00  0.02  0.00
  WS02004413WS02003067    1.00   0.01  0.04  0.00  0.00  0.00  0.95  0.00  0.00  0.00
  WS02006109WS02006110    1.00   0.00  0.00  0.00  1.00  0.00  0.00  0.00  0.00  0.00
  WS02006110WS02006113    1.00   0.00  0.00  0.00  1.00  0.00  0.00  0.00  0.00  0.00
  WS02006111WS02006112    1.00   0.00  0.00  0.00  1.00  0.00  0.00  0.00  0.76  0.00
  WS02006112WS02006115    1.00   0.00  0.00  0.00  1.00  0.00  0.00  0.00  0.00  0.00
  WS02006113WS02006111    1.00   0.00  0.00  0.00  0.23  0.77  0.00  0.00  0.06  0.00
  WS02006115WS02006116    1.00   0.00  0.00  0.00  1.00  0.00  0.00  0.00  0.00  0.00
  WS02006116WS02004401    1.00   0.00  0.00  0.00  1.00  0.00  0.00  0.00  0.00  0.00
  WS02006228WS02006109    1.00   0.00  0.00  0.00  1.00  0.00  0.00  0.00  0.00  0.00
  WS02006229WS02006228    1.00   0.00  0.00  0.00  1.00  0.00  0.00  0.00  0.00  0.00
  WS02006230WS02006229    1.00   0.00  0.00  0.00  1.00  0.00  0.00  0.00  0.00  0.00
  WS02006231WS02006230    1.00   0.00  0.00  0.00  0.31  0.00  0.69  0.00  0.00  0.00
  WS02006232WS02006231    1.00   0.00  0.00  0.00  0.99  0.00  0.00  0.00  0.01  0.00
  WS02006234WS02006232    1.00   0.00  0.01  0.00  0.99  0.00  0.00  0.00  0.02  0.00
  WS02006235WS02006234    1.00   0.02  0.00  0.00  0.90  0.00  0.08  0.00  0.00  0.00
  WS02006238WS02006235    1.00   0.02  0.00  0.00  0.98  0.00  0.00  0.00  0.00  0.00
  WS02006239WS02006238    1.00   0.02  0.00  0.00  0.98  0.00  0.00  0.00  0.06  0.00
  WS02006240WS02006239    1.00   0.02  0.00  0.00  0.62  0.00  0.00  0.36  0.01  0.00
  WS02006242WS02006240    1.00   0.01  0.00  0.00  0.98  0.00  0.01  0.00  0.00  0.00
  WS02006243WS02006242    1.00   0.01  0.00  0.00  0.98  0.00  0.00  0.01  0.51  0.00
  WS02006245WS02006243    1.00   0.01  0.00  0.00  0.89  0.00  0.00  0.10  0.01  0.00
  WS02006247WS02006245    1.00   0.01  0.00  0.00  0.98  0.00  0.00  0.01  0.00  0.00
  WS02006248WS02006247    1.00   0.01  0.00  0.00  0.98  0.00  0.00  0.01  0.51  0.00
  WS02006249WS02006248    1.00   0.00  0.01  0.00  0.47  0.00  0.52  0.00  0.00  0.00
  WS02006251WS02006249    1.00   0.00  0.00  0.00  1.00  0.00  0.00  0.00  0.50  0.00
  WS02006252WS02006251    1.00   0.01  0.08  0.00  0.23  0.00  0.68  0.00  0.00  0.00
  WS02006253WS02006251    1.00   0.01  0.00  0.00  0.99  0.00  0.00  0.00  0.00  0.00
  WS02006256WS02006235    1.00   0.02  0.00  0.00  0.98  0.00  0.00  0.00  0.00  0.00
  WS02006280WS02006229    1.00   0.14  0.00  0.00  0.19  0.03  0.00  0.64  0.01  0.00
  WS02006284WS02006280    1.00   0.14  0.00  0.00  0.13  0.01  0.00  0.72  0.00  0.00
  WS02006287WS02006284    1.00   0.10  0.05  0.00  0.59  0.25  0.00  0.00  0.66  0.00
  WSF200WS02003060        1.00   0.00  0.06  0.00  0.66  0.28  0.00  0.00  0.54  0.00
  YS02001580YS02001583    1.00   0.21  0.57  0.00  0.22  0.00  0.00  0.00  0.66  0.00
  YS02001583YS02001586    1.00   0.41  0.31  0.00  0.27  0.00  0.00  0.00  0.66  0.00
  YS02001586YS02001590    1.00   0.13  0.00  0.00  0.44  0.04  0.00  0.39  0.35  0.00
  YS02001590YS02001593    1.00   0.13  0.01  0.00  0.15  0.00  0.72  0.00  0.00  0.00
  YS02001593YS02001596    1.00   0.13  0.00  0.00  0.18  0.01  0.00  0.68  0.03  0.00
  YS02001596YS02001600    1.00   0.13  0.00  0.00  0.23  0.01  0.00  0.62  0.04  0.00
  YS02001600YS02001601    1.00   0.13  0.01  0.00  0.86  0.00  0.00  0.00  0.58  0.00
  YS02001601YS02001602    1.00   0.13  0.01  0.00  0.87  0.00  0.00  0.00  0.00  0.00
  YS02001602YS02001605    1.00   0.13  0.00  0.00  0.87  0.00  0.00  0.00  0.00  0.00
  YS02001605YS02001607    1.00   0.13  0.00  0.00  0.87  0.00  0.00  0.00  0.00  0.00
  YS02001607YS02001610    1.00   0.13  0.01  0.00  0.86  0.00  0.00  0.00  0.01  0.00
  YS02001610YS02001613    1.00   0.13  0.00  0.00  0.87  0.00  0.00  0.00  0.00  0.00
  YS02001613YS02001616    1.00   0.13  0.00  0.00  0.87  0.00  0.00  0.00  0.00  0.00
  YS02001616YS02001619    1.00   0.13  0.00  0.00  0.87  0.00  0.00  0.00  0.00  0.00
  YS02001619YS02001622    1.00   0.13  0.00  0.00  0.87  0.00  0.00  0.00  0.29  0.00
  YS02001622YS02001625    1.00   0.13  0.00  0.00  0.87  0.00  0.00  0.00  0.03  0.00
  YS02001625YS02001629    1.00   0.13  0.04  0.00  0.24  0.00  0.59  0.00  0.00  0.00
  YS02001629YS02163301    1.00   0.15  0.01  0.00  0.84  0.00  0.00  0.00  0.00  0.00
  YS02001633YS02163601    1.00   0.00  0.01  0.00  0.99  0.00  0.00  0.00  0.14  0.00
  YS02001641YS02001644    1.00   0.00  0.01  0.00  0.99  0.00  0.00  0.00  0.00  0.00
  YS02001644YS02001647    1.00   0.00  0.16  0.00  0.84  0.00  0.00  0.00  0.00  0.00
  YS02001647YS02001649    1.00   0.00  0.16  0.00  0.65  0.19  0.00  0.00  0.56  0.00
  YS02001649YS02001757    1.00   0.00  0.00  0.00  0.92  0.08  0.00  0.00  0.68  0.00
  YS02001652YS02001649    1.00   0.00  0.00  0.00  0.97  0.03  0.00  0.00  0.67  0.00
  YS02001655YS02001652    1.00   0.00  0.00  0.00  0.28  0.01  0.00  0.72  0.04  0.00
  YS02001658YS02001655    1.00   0.00  0.14  0.00  0.76  0.11  0.00  0.00  0.59  0.00
  YS02001661YS02001658    1.00   0.14  0.00  0.00  0.59  0.27  0.00  0.00  0.73  0.00
  YS02001664YS02001661    1.00   0.13  0.00  0.00  0.71  0.16  0.00  0.00  0.85  0.00
  YS02001745YS02001748    1.00   0.00  0.00  0.00  0.19  0.00  0.00  0.80  0.16  0.00
  YS02001748YS02001751    1.00   0.00  0.00  0.00  0.89  0.11  0.00  0.00  0.69  0.00
  YS02001751YS02001754    1.00   0.00  0.00  0.00  0.27  0.01  0.00  0.73  0.03  0.00
  YS02001754YS02001757    1.00   0.00  0.00  0.00  1.00  0.00  0.00  0.00  0.72  0.00
  YS02001757CaochengTiaoxuchi    1.00   0.00  0.00  0.00  0.38  0.62  0.00  0.00  0.13  0.00
  YS02001759YS02001757    1.00   0.00  0.00  0.00  1.00  0.00  0.00  0.00  0.64  0.00
  YS02001762YS02001759    1.00   0.00  0.00  0.00  1.00  0.00  0.00  0.00  0.03  0.00
  YS02001765YS02001762    1.00   0.00  0.00  0.00  1.00  0.00  0.00  0.00  0.64  0.00
  YS02001767YS02001765    1.00   0.00  0.00  0.00  1.00  0.00  0.00  0.00  0.00  0.00
  YS02001770YS02001767    1.00   0.00  0.00  0.00  1.00  0.00  0.00  0.00  0.00  0.00
  YS02001774YS02001770    1.00   0.00  0.13  0.00  0.71  0.00  0.16  0.00  0.02  0.00
  YS02001779YS02001774    1.00   0.00  0.00  0.00  1.00  0.00  0.00  0.00  0.69  0.00
  YS02001783YS02001784    1.00   0.00  0.17  0.00  0.83  0.00  0.00  0.00  0.55  0.00
  YS02001784YS02001785    1.00   0.00  0.00  0.00  1.00  0.00  0.00  0.00  0.16  0.00
  YS02001786YS02001788    1.00   0.00  0.00  0.00  0.79  0.21  0.00  0.00  0.00  0.00
  YS02001788YS02001790    1.00   0.00  0.00  0.00  0.20  0.80  0.00  0.00  0.79  0.00
  YS02001790YS02001791    1.00   0.00  0.00  0.00  0.01  0.99  0.00  0.00  0.16  0.00
  YS02001791YS02001793    1.00   0.00  0.00  0.00  0.00  1.00  0.00  0.00  0.01  0.00
  YS02001793JiankangQianchi    1.00   0.00  0.00  0.00  0.06  0.94  0.00  0.00  0.12  0.00
  YS02001882YS02001884    1.00   0.15  0.01  0.00  0.85  0.00  0.00  0.00  0.00  0.00
  YS02001884YS02001887    1.00   0.06  0.05  0.00  0.89  0.00  0.00  0.00  0.00  0.00
  YS02001887YS02001890    1.00   0.00  0.00  0.00  0.97  0.00  0.03  0.00  0.00  0.00
  YS02001890YS02001895    1.00   0.00  0.15  0.00  0.84  0.00  0.00  0.00  0.00  0.00
  YS02001895YS02001898    1.00   0.16  0.00  0.00  0.83  0.00  0.01  0.00  0.00  0.00
  YS02001898YS02001901    1.00   0.16  0.00  0.00  0.84  0.00  0.00  0.00  0.01  0.00
  YS02001901YS02001904    1.00   0.16  0.00  0.00  0.84  0.00  0.00  0.00  0.00  0.00
  YS02001904YS02001907    1.00   0.00  0.16  0.00  0.84  0.00  0.00  0.00  0.00  0.00
  YS02001907YS02006553    1.00   0.00  0.02  0.00  0.98  0.00  0.00  0.00  0.00  0.00
  YS02001910YS02001907    1.00   0.00  0.00  0.00  0.97  0.00  0.00  0.03  0.12  0.00
  YS02001915YS02001910    1.00   0.00  0.00  0.00  0.97  0.03  0.00  0.00  0.13  0.00
  YS02001918YS02001915    1.00   0.00  0.00  0.00  0.98  0.02  0.00  0.00  0.73  0.00
  YS02001920YS02001918    1.00   0.00  0.00  0.00  1.00  0.00  0.00  0.00  0.01  0.00
  YS02001923YS02001920    1.00   0.00  0.00  0.00  1.00  0.00  0.00  0.00  0.91  0.00
  YS02001926YS02001923    1.00   0.00  0.07  0.00  0.07  0.00  0.85  0.00  0.00  0.00
  YS02001929YS02001926    1.00   0.00  0.13  0.00  0.87  0.00  0.00  0.00  0.81  0.00
  YS02006553YS02006556    1.00   0.01  0.00  0.00  0.99  0.00  0.00  0.00  0.03  0.00
  YS02006556YS02006558    1.00   0.00  0.00  0.00  1.00  0.00  0.00  0.00  0.00  0.00
  YS02006558YS02006561    1.00   0.17  0.00  0.00  0.07  0.76  0.00  0.00  0.18  0.00
  YS02006561YS02001783    1.00   0.17  0.00  0.00  0.10  0.73  0.00  0.00  0.67  0.00
  YS02163301YS02001633    1.00   0.00  0.15  0.00  0.85  0.00  0.00  0.00  0.00  0.00
  YS02163601YS02164001    1.00   0.00  0.08  0.00  0.92  0.00  0.00  0.00  0.00  0.00
  YS02164001YS02001641    1.00   0.01  0.07  0.00  0.92  0.00  0.00  0.00  0.05  0.00
  YSB1154YSB6556          1.00   0.12  0.00  0.00  0.88  0.00  0.00  0.00  0.01  0.00
  YSB1171HS02004479       1.00   0.04  0.00  0.00  0.95  0.00  0.00  0.01  0.10  0.00
  YSB1174YSB1171          1.00   0.05  0.04  0.00  0.91  0.00  0.00  0.00  0.00  0.00
  YSB6556YSB1171          1.00   0.04  0.08  0.00  0.88  0.00  0.00  0.00  0.00  0.00
  
  
  *************************
  Conduit Surcharge Summary
  *************************
  
  ----------------------------------------------------------------------------
                                                           Hours        Hours 
                         --------- Hours Full --------   Above Full   Capacity
  Conduit                Both Ends  Upstream  Dnstream   Normal Flow   Limited
  ----------------------------------------------------------------------------
  HS02004478WS02006287        0.61      0.61      0.81      0.01         0.01
  HS02004479HS02004480        0.81      0.81      0.83      0.01         0.01
  HS02004480HS02004478        0.73      0.81      0.73      1.83         0.73
  HS02004770HS02004777        0.70      0.70      0.71      0.11         0.08
  HS02004777HS02004785        0.65      0.65      0.71      0.01         0.01
  HS02004785HS02004788        0.64      0.65      0.64      1.65         0.56
  HS02004788HS02004792        0.64      0.64      0.77      0.01         0.01
  HS02004792HS02004799        0.77      0.77      0.91      0.01         0.01
  HS02004799HS02004480        0.81      0.81      0.91      1.04         0.01
  HS02004802HS02004478        0.74      0.74      0.82      0.19         0.01
  HS02004807HS02004802        0.80      0.80      0.81      0.35         0.35
  HS02004817HS02004807        0.80      0.80      1.52      0.01         0.01
  HS02004817HS02004824        0.63      0.63      1.52      0.01         0.01
  HS02004824HS02004830        0.60      0.60      0.63      0.01         0.01
  HS02004830HS02004837        0.55      0.55      0.60      0.01         0.01
  HS02004837HS02004842        0.55      0.55      0.71      0.01         0.01
  HS02004842HS02004848        0.52      0.52      0.71      0.01         0.01
  HS02004848HS02004852        0.52      0.52      0.55      0.02         0.01
  HS02004852HS02004856        0.55      0.55      0.57      0.02         0.01
  HS02004856HS02004862        0.52      0.52      0.56      0.01         0.01
  HS02004862HS02004870        0.56      0.56      0.58      0.26         0.24
  HS02004870HS02004876        0.58      0.58      0.64      0.01         0.01
  HS02004876HS02004881        0.62      0.64      0.62      1.67         0.62
  HS02004881HS02006253        0.62      0.62      1.78      0.01         0.01
  HS02004901HS02004770        0.70      0.70      0.71      0.03         0.01
  WS02003072WS02003073        0.01      0.01      0.01      3.15         0.01
  WS02004401WS02004402        1.82      1.82      1.84      1.67         1.67
  WS02004402WS02004403        1.84      1.84      1.85      1.83         1.81
  WS02004403WS02004404        1.85      1.85      1.92      0.01         0.03
  WS02004404WS02004405        1.91      1.92      1.91      3.65         1.91
  WS02004405WS02004406        1.89      1.91      1.89      2.02         1.89
  WS02004406WS02004407        0.01      0.01      1.89      0.01         0.01
  WS02004407WS02004409        0.01      0.01      1.30      0.01         0.01
  WS02004409WS02004410        1.18      1.30      1.18      1.75         1.18
  WS02004410WS02004411        1.08      1.18      1.08      1.79         1.08
  WS02004411WS02004412        0.96      1.08      0.96      1.82         0.96
  WS02004412WS02004413        0.96      0.96      1.59      0.01         0.01
  WS02004413WS02003067        0.01      0.01      1.59      0.01         0.01
  WS02006109WS02006110        1.97      1.98      2.22      1.98         0.01
  WS02006110WS02006113        1.59      1.59      2.21      0.34         0.01
  WS02006111WS02006112        1.56      1.57      2.68      0.01         0.01
  WS02006112WS02006115        1.75      1.75      2.05      0.01         0.01
  WS02006113WS02006111        1.58      1.59      1.58      1.69         1.58
  WS02006115WS02006116        1.76      1.76      1.77      1.77         1.73
  WS02006116WS02004401        1.82      1.82      1.82      1.82         1.78
  WS02006228WS02006109        2.18      2.22      2.18      3.29         2.18
  WS02006229WS02006228        2.17      2.18      2.17      2.43         2.17
  WS02006230WS02006229        2.26      2.31      2.26      3.97         1.02
  WS02006231WS02006230        1.92      1.92      1.96      3.47         1.22
  WS02006232WS02006231        1.95      1.95      2.06      0.01         0.17
  WS02006234WS02006232        1.97      1.97      2.06      0.01         0.01
  WS02006235WS02006234        1.95      1.96      1.98      3.26         1.20
  WS02006238WS02006235        2.00      2.00      2.03      0.01         0.44
  WS02006239WS02006238        2.00      2.00      2.01      1.05         0.04
  WS02006240WS02006239        1.95      1.96      1.96      1.04         0.01
  WS02006242WS02006240        1.95      1.95      2.01      1.42         1.08
  WS02006243WS02006242        1.96      1.96      1.99      0.01         0.01
  WS02006245WS02006243        1.95      1.95      1.95      0.03         0.01
  WS02006247WS02006245        1.94      1.95      1.94      3.16         0.39
  WS02006248WS02006247        1.91      1.91      1.94      0.01         0.01
  WS02006249WS02006248        1.90      1.90      1.92      1.75         0.01
  WS02006251WS02006249        1.90      1.92      1.92      1.59         1.53
  WS02006252WS02006251        1.83      1.84      1.89      0.20         0.12
  WS02006253WS02006251        1.91      1.91      1.94      0.96         0.01
  WS02006256WS02006235        3.56      3.57      7.48      0.79         0.01
  WS02006280WS02006229        0.97      0.97      1.11      0.01         0.01
  WS02006284WS02006280        0.84      0.84      0.95      0.01         0.01
  WS02006287WS02006284        0.72      0.72      0.85      0.38         0.38
  YS02001580YS02001583        0.77      0.77      0.84      0.01         0.01
  YS02001583YS02001586        0.78      0.78      0.93      0.01         0.01
  YS02001586YS02001590        0.94      0.94      1.02      0.01         0.01
  YS02001590YS02001593        1.02      1.02      1.05      1.10         0.01
  YS02001593YS02001596        1.04      1.04      1.18      0.01         0.01
  YS02001596YS02001600        1.25      1.25      1.43      0.01         0.01
  YS02001600YS02001601        1.48      1.48      1.71      0.01         0.01
  YS02001601YS02001602        1.63      1.63      1.74      1.34         0.01
  YS02001602YS02001605        1.59      1.59      1.63      2.39         0.01
  YS02001605YS02001607        1.56      1.59      1.58      1.62         1.52
  YS02001607YS02001610        1.04      1.04      1.08      0.01         0.01
  YS02001610YS02001613        1.03      1.03      1.08      0.01         0.01
  YS02001613YS02001616        0.96      0.96      1.03      0.01         0.01
  YS02001616YS02001619        0.94      0.94      0.96      0.01         0.07
  YS02001619YS02001622        0.94      0.94      0.94      1.00         0.91
  YS02001622YS02001625        0.94      0.94      1.28      0.01         0.01
  YS02001625YS02001629        0.88      0.88      1.28      0.01         0.01
  YS02001629YS02163301        1.32      1.32      1.35      0.33         0.31
  YS02001633YS02163601        1.39      1.39      1.44      0.56         0.56
  YS02001641YS02001644        1.34      1.37      1.34      1.73         1.33
  YS02001644YS02001647        0.84      0.84      1.34      0.04         0.01
  YS02001647YS02001649        0.84      0.84      1.30      0.01         0.01
  YS02001649YS02001757        1.29      1.30      1.48      0.43         0.40
  YS02001652YS02001649        0.68      0.68      1.30      0.01         0.01
  YS02001655YS02001652        0.34      0.34      0.58      0.01         0.01
  YS02001658YS02001655        0.22      0.22      0.34      0.01         0.01
  YS02001661YS02001658        0.08      0.08      0.22      0.01         0.01
  YS02001664YS02001661        0.01      0.01      0.12      0.01         0.01
  YS02001745YS02001748        0.01      0.01      0.13      0.01         0.01
  YS02001748YS02001751        0.19      0.19      0.24      0.01         0.01
  YS02001751YS02001754        0.24      0.24      0.36      0.01         0.01
  YS02001754YS02001757        0.42      0.42      1.48      0.01         0.01
  YS02001757CaochengTiaoxuchi        1.17      1.48      1.84      0.54         0.19
  YS02001759YS02001757        1.30      1.30      1.48      0.06         0.08
  YS02001762YS02001759        1.21      1.21      1.30      0.01         0.03
  YS02001765YS02001762        0.88      0.88      1.21      0.01         0.01
  YS02001767YS02001765        0.80      0.80      0.88      0.03         0.05
  YS02001770YS02001767        0.79      0.79      0.80      0.65         0.56
  YS02001774YS02001770        0.63      0.63      1.11      0.01         0.01
  YS02001779YS02001774        0.38      0.38      1.11      0.01         0.01
  YS02001783YS02001784        0.63      0.65      0.63      0.82         0.63
  YS02001784YS02001785        0.51      0.63      0.51      1.13         0.51
  YS02001786YS02001788        0.01      0.51      0.01      0.95         0.01
  YS02001790YS02001791        0.01      0.01      0.01      0.62         0.01
  YS02001793JiankangQianchi        0.01      0.01      0.22      0.01         0.01
  YS02001882YS02001884        0.59      0.59      0.60      0.01         0.01
  YS02001884YS02001887        0.63      0.63      0.65      0.01         0.01
  YS02001887YS02001890        0.66      0.66      0.67      0.17         0.01
  YS02001890YS02001895        0.58      0.58      0.69      0.01         0.01
  YS02001895YS02001898        0.57      0.57      0.58      0.01         0.01
  YS02001898YS02001901        0.58      0.58      0.63      0.01         0.01
  YS02001901YS02001904        0.62      0.62      0.63      0.01         0.01
  YS02001904YS02001907        0.62      0.62      0.92      0.01         0.01
  YS02001907YS02006553        1.14      1.14      1.22      0.01         0.01
  YS02001910YS02001907        0.69      0.69      0.89      0.01         0.01
  YS02001915YS02001910        0.59      0.59      0.69      0.01         0.01
  YS02001918YS02001915        0.50      0.50      0.59      0.01         0.01
  YS02001920YS02001918        0.50      0.50      0.51      0.01         0.01
  YS02001923YS02001920        0.45      0.45      0.51      0.01         0.01
  YS02001926YS02001923        0.16      0.16      0.19      0.01         0.01
  YS02001929YS02001926        0.01      0.01      0.19      0.01         0.01
  YS02006553YS02006556        0.79      0.79      0.92      0.01         0.01
  YS02006556YS02006558        0.85      0.85      0.94      0.01         0.01
  YS02006558YS02006561        0.54      0.78      0.54      1.06         0.54
  YS02006561YS02001783        0.46      0.46      0.65      0.01         0.01
  YS02163301YS02001633        1.35      1.35      1.41      0.01         0.01
  YS02163601YS02164001        1.35      1.35      1.44      0.21         0.01
  YS02164001YS02001641        1.35      1.35      1.37      0.89         0.85
  YSB1154YSB6556              0.87      0.87      1.08      0.01         0.01
  YSB1171HS02004479           0.76      0.76      1.08      0.01         0.01
  YSB1174YSB1171              0.95      0.95      1.42      0.01         0.01
  YSB6556YSB1171              0.87      0.87      1.58      0.01         0.01
  
  
  ***************
  Pumping Summary
  ***************
  
  ---------------------------------------------------------------------------------------------------------
                                                  Min       Avg       Max     Total     Power    % Time Off
                        Percent   Number of      Flow      Flow      Flow    Volume     Usage    Pump Curve
  Pump                 Utilized   Start-Ups       LPS       LPS       LPS  10^6 ltr     Kw-hr    Low   High
  ---------------------------------------------------------------------------------------------------------
  CC-R1                   42.71          17      0.00    623.02    683.00     6.086    106.36    0.0   63.2
  CC-R2                   82.29          14      0.00    432.50    683.00     6.646    115.41    0.0   82.5
  CC-S1                   22.92          13      0.00    199.66    200.00     1.317      9.02    0.0   30.7
  CC-S2                   61.46          19      0.00    117.44    200.00     1.306      8.25    0.0   71.2
  JK-R1                   80.21          11      0.00    181.50   1000.00     3.395      9.49    0.0    0.0
  JK-R2                   38.54           8      0.00    277.17   1000.00     2.841      7.11    0.0    0.0
  JK-S                    37.50          13      0.00    146.36    300.00     1.536     34.75    0.0    0.0
  XR-1                    97.91           1      0.00     95.00     95.00     2.679      9.64    0.0    0.0
  XR-2                    93.95           1      0.00     95.00     95.00     2.570      8.80    0.0    0.0
  XR-3                     0.00           0      0.00      0.00      0.00     0.000      0.00    0.0    0.0
  XR-4                     0.00           0      0.00      0.00      0.00     0.000      0.00    0.0    0.0
  

  Analysis begun on:  Thu Jun 15 06:46:37 2023
  Analysis ended on:  Thu Jun 15 06:46:41 2023
  Total elapsed time: 00:00:04