
  OWA STORM WATER MANAGEMENT MODEL - VERSION v5.2.3 (OWA 2023-03-28)
  ------------------------------------------------------------

  WARNING 04: minimum elevation drop used for Conduit WS02004404WS02004405
  WARNING 03: negative offset ignored for Link YS02001904YS02001907
  
  ****************
  Analysis Options
  ****************
  Flow Units ............... LPS
  Process Models:
    Rainfall/Runoff ........ YES
    RDII ................... NO
    Snowmelt ............... NO
    Groundwater ............ NO
    Flow Routing ........... YES
    Ponding Allowed ........ NO
    Water Quality .......... NO
  Infiltration Method ...... HORTON
  Flow Routing Method ...... DYNWAVE
  Surcharge Method ......... EXTRAN
  Starting Date ............ 08/28/2015 08:00:00
  Ending Date .............. 08/28/2015 16:00:00
  Antecedent Dry Days ...... 8.0
  Report Time Step ......... 00:01:00
  Wet Time Step ............ 00:01:00
  Dry Time Step ............ 00:01:00
  Routing Time Step ........ 30.00 sec
  Variable Time Step ....... YES
  Maximum Trials ........... 8
  Number of Threads ........ 1
  Head Tolerance ........... 0.001500 m
  
  
  **************************        Volume         Depth
  Runoff Quantity Continuity     hectare-m            mm
  **************************     ---------       -------
  Total Precipitation ......         1.908        31.494
  Evaporation Loss .........         0.000         0.000
  Infiltration Loss ........         0.213         3.513
  Surface Runoff ...........         1.635        26.984
  Final Storage ............         0.061         1.004
  Continuity Error (%) .....        -0.021
  
  
  **************************        Volume        Volume
  Flow Routing Continuity        hectare-m      10^6 ltr
  **************************     ---------     ---------
  Dry Weather Inflow .......         0.630         6.296
  Wet Weather Inflow .......         1.635        16.346
  Groundwater Inflow .......         0.000         0.000
  RDII Inflow ..............         0.000         0.000
  External Inflow ..........         0.105         1.045
  External Outflow .........         2.401        24.010
  Flooding Loss ............         0.393         3.932
  Evaporation Loss .........         0.000         0.000
  Exfiltration Loss ........         0.000         0.000
  Initial Stored Volume ....         0.303         3.031
  Final Stored Volume ......         0.173         1.730
  Continuity Error (%) .....       -11.057
  
  
  *************************
  Highest Continuity Errors
  *************************
  Node JK-storage (-73.40%)
  Node YS02001583 (-11.22%)
  Node CC-storage (-9.51%)
  Node YS02001884 (5.16%)
  Node HS02004842 (2.38%)
  
  
  ***************************
  Time-Step Critical Elements
  ***************************
  Link WS02006252WS02006251 (72.21%)
  Link YS02001793JiankangQianchi (9.56%)
  Link WS02006280WS02006229 (9.10%)
  Link WS02006238WS02006235 (3.45%)
  
  
  ********************************
  Highest Flow Instability Indexes
  ********************************
  Link WS02006113WS02006111 (24)
  Link WS02006238WS02006235 (10)
  Link WS02006252WS02006251 (10)
  Link WS02006111WS02006112 (10)
  Link WS02004404WS02004405 (9)
  
  
  *********************************
  Most Frequent Nonconverging Nodes
  *********************************
  Node CC-1 (6.67%)
  Node CC-2 (6.67%)
  Node JK-1 (6.67%)
  Node JK-2 (6.67%)
  Node WSC (6.67%)
  
  
  *************************
  Routing Time Step Summary
  *************************
  Minimum Time Step           :     0.00 sec
  Average Time Step           :     1.66 sec
  Maximum Time Step           :    30.00 sec
  % of Time in Steady State   :     0.00
  Average Iterations per Step :     2.68
  % of Steps Not Converging   :     6.67
  Time Step Frequencies       :
     30.000 - 13.228 sec      :     0.01 %
     13.228 -  5.833 sec      :     0.13 %
      5.833 -  2.572 sec      :    19.00 %
      2.572 -  1.134 sec      :    40.56 %
      1.134 -  0.500 sec      :    40.30 %
  
  
  ***************************
  Subcatchment Runoff Summary
  ***************************
  
  ------------------------------------------------------------------------------------------------------------------------------
                            Total      Total      Total      Total     Imperv       Perv      Total       Total     Peak  Runoff
                           Precip      Runon       Evap      Infil     Runoff     Runoff     Runoff      Runoff   Runoff   Coeff
  Subcatchment                 mm         mm         mm         mm         mm         mm         mm    10^6 ltr      LPS
  ------------------------------------------------------------------------------------------------------------------------------
  sub0                      31.49       0.00       0.00       0.91      28.03       1.29      29.33        0.02    17.67   0.931
  sub1                      31.49       0.00       0.00       1.53      26.78       1.93      28.71        0.19   111.73   0.912
  sub10                     31.49       0.00       0.00       1.08      27.69       1.44      29.13        0.32   193.59   0.925
  sub11                     31.49       0.00       0.00       1.07      27.71       1.45      29.16        0.34   218.35   0.926
  sub12                     31.49       0.00       0.00       1.74      26.22       2.36      28.58        0.25   177.57   0.907
  sub14                     31.49       0.00       0.00       1.22      27.40       1.62      29.02        0.28   171.95   0.921
  sub15                     31.49       0.00       0.00       4.72      21.07       4.73      25.80        0.44   246.93   0.819
  sub16                     31.49       0.00       0.00       4.90      20.19       5.49      25.68        0.27   167.45   0.815
  sub17                     31.49       0.00       0.00       4.78      20.49       5.30      25.79        0.22   135.91   0.819
  sub2                      31.49       0.00       0.00       6.61      18.94       5.04      23.98        0.22   105.24   0.761
  sub22                     31.49       0.00       0.00       7.12      17.17       6.43      23.59        1.49   799.39   0.749
  sub23                     31.49       0.00       0.00       5.84      18.98       5.82      24.80        1.18   673.29   0.787
  sub3                      31.49       0.00       0.00       7.06      18.90       4.59      23.49        0.53   223.30   0.746
  sub4                      31.49       0.00       0.00       1.70      26.62       1.77      28.39        0.59   251.61   0.901
  sub5                      31.49       0.00       0.00       0.95      27.98       1.26      29.24        0.33   195.35   0.929
  sub60                     31.49       0.00       0.00       1.63      26.51       2.15      28.65        0.38   245.34   0.910
  sub61                     31.49       0.00       0.00       2.36      25.00       2.99      28.00        0.51   335.64   0.889
  sub62                     31.49       0.00       0.00       1.09      27.68       1.43      29.12        0.80   472.63   0.924
  sub63                     31.49       0.00       0.00       4.35      21.39       4.79      26.17        0.59   357.76   0.831
  sub64                     31.49       0.00       0.00       2.20      25.56       2.53      28.09        0.67   369.19   0.892
  sub65                     31.49       0.00       0.00       1.90      26.14       2.19      28.34        0.78   411.05   0.900
  sub66                     31.49       0.00       0.00       5.25      21.29       3.89      25.17        1.17   504.62   0.799
  sub67                     31.49       0.00       0.00       1.05      27.72       1.47      29.19        0.54   381.45   0.927
  sub68                     31.49       0.00       0.00       1.96      25.89       2.45      28.35        0.78   480.41   0.900
  sub69                     31.49       0.00       0.00       1.69      26.66       3.04      29.70        1.10   557.93   0.943
  sub7                      31.49       0.00       0.00       1.20      27.41       1.63      29.05        0.10    65.05   0.922
  sub70                     31.49       0.00       0.00       5.47      20.62       5.24      25.87        0.75   288.27   0.821
  sub71                     31.49       0.00       0.00       1.11      27.64       1.41      29.05        0.76   404.47   0.922
  sub72                     31.49       0.00       0.00       0.99      27.89       1.21      29.10        0.40   190.61   0.924
  sub8                      31.49       0.00       0.00       1.21      27.40       1.62      29.02        0.19   117.46   0.922
  sub9                      31.49       0.00       0.00       1.22      27.40       1.62      29.02        0.14    87.51   0.921
  
  
  ******************
  Node Depth Summary
  ******************
  
  ---------------------------------------------------------------------------------
                                 Average  Maximum  Maximum  Time of Max    Reported
                                   Depth    Depth      HGL   Occurrence   Max Depth
  Node                 Type       Meters   Meters   Meters  days hr:min      Meters
  ---------------------------------------------------------------------------------
  HS02004478           JUNCTION     0.14     1.52    10.75     0  02:04        1.28
  HS02004479           JUNCTION     0.21     1.69    10.90     0  02:01        1.57
  HS02004480           JUNCTION     0.18     1.66    10.90     0  02:04        1.50
  HS02004770           JUNCTION     0.20     1.42    11.25     0  02:01        1.42
  HS02004777           JUNCTION     0.22     1.48    11.28     0  02:01        1.45
  HS02004785           JUNCTION     0.12     1.49    11.39     0  02:01        1.32
  HS02004788           JUNCTION     0.09     1.42    11.32     0  02:01        1.31
  HS02004792           JUNCTION     0.13     1.60    11.12     0  02:01        1.60
  HS02004799           JUNCTION     0.23     1.76    10.97     0  02:01        1.68
  HS02004802           JUNCTION     0.24     1.70    10.83     0  02:04        1.36
  HS02004807           JUNCTION     0.21     1.88    11.05     0  02:04        1.34
  HS02004817           JUNCTION     0.50     2.40    11.25     0  02:04        1.66
  HS02004824           JUNCTION     0.09     2.00    11.40     0  02:04        1.11
  HS02004830           JUNCTION     0.10     2.03    11.50     0  02:04        1.04
  HS02004837           JUNCTION     0.07     2.01    11.59     0  02:04        0.92
  HS02004842           JUNCTION     0.36     2.22    11.49     0  02:04        1.21
  HS02004848           JUNCTION     0.05     2.07    11.67     0  02:04        0.86
  HS02004852           JUNCTION     0.06     2.12    11.63     0  02:04        0.91
  HS02004856           JUNCTION     0.12     2.07    11.50     0  02:04        0.95
  HS02004862           JUNCTION     0.07     2.00    11.38     0  02:04        0.94
  HS02004870           JUNCTION     0.06     1.96    11.25     0  02:04        0.97
  HS02004876           JUNCTION     0.10     1.98    11.01     0  02:04        1.15
  HS02004881           JUNCTION     0.05     2.15    11.18     0  02:03        1.07
  HS02004901           JUNCTION     0.20     1.42    11.24     0  02:01        1.42
  WS02001211           JUNCTION     0.62     0.80     5.64     0  02:05        0.80
  WS02001212           JUNCTION     0.36     0.56     5.62     0  02:05        0.56
  WS02001213           JUNCTION     0.56     0.85     5.62     0  02:05        0.85
  WS02003059           JUNCTION     0.63     0.93     5.61     0  02:06        0.92
  WS02003060           JUNCTION     0.35     0.67     5.60     0  02:07        0.67
  WS02003066           JUNCTION     0.20     0.44     6.00     0  02:05        0.44
  WS02003067           JUNCTION     0.50     0.88     6.20     0  02:04        0.88
  WS02003069           JUNCTION     0.39     0.76     5.34     0  02:07        0.76
  WS02003072           JUNCTION     0.45     0.79     5.17     0  02:08        0.79
  WS02003073           JUNCTION     0.27     0.50     4.57     0  02:09        0.50
  WS02004138           JUNCTION     0.13     0.14     7.39     0  00:32        0.14
  WS02004139           JUNCTION     0.55     0.73     5.64     0  02:05        0.73
  WS02004401           JUNCTION     0.68     1.73     7.73     0  02:02        1.71
  WS02004402           JUNCTION     0.71     1.68     7.64     0  02:02        1.67
  WS02004403           JUNCTION     0.72     1.61     7.54     0  02:03        1.59
  WS02004404           JUNCTION     0.79     1.63     7.48     0  02:02        1.62
  WS02004405           JUNCTION     0.78     1.58     7.43     0  02:02        1.57
  WS02004406           JUNCTION     0.78     1.48     7.31     0  02:02        1.47
  WS02004407           JUNCTION     0.21     0.82     7.13     0  02:03        0.82
  WS02004409           JUNCTION     0.45     1.32     7.09     0  02:03        1.30
  WS02004410           JUNCTION     0.46     1.23     6.95     0  02:03        1.22
  WS02004411           JUNCTION     0.48     1.16     6.84     0  02:03        1.15
  WS02004412           JUNCTION     0.49     1.07     6.71     0  02:03        1.07
  WS02004413           JUNCTION     0.63     1.12     6.59     0  02:03        1.12
  WS02006109           JUNCTION     0.81     2.64     9.26     0  02:01        2.64
  WS02006110           JUNCTION     0.78     2.34     8.92     0  02:01        2.33
  WS02006111           JUNCTION     0.31     1.59     8.30     0  02:02        1.58
  WS02006112           JUNCTION     0.87     2.68     8.56     0  00:00        2.18
  WS02006113           JUNCTION     0.38     1.76     8.65     0  01:56        1.71
  WS02006115           JUNCTION     0.58     1.80     7.94     0  02:02        1.78
  WS02006116           JUNCTION     0.66     1.80     7.84     0  02:02        1.79
  WS02006228           JUNCTION     0.84     3.03     9.68     0  02:01        2.95
  WS02006229           JUNCTION     0.83     3.24     9.93     0  02:01        3.10
  WS02006230           JUNCTION     0.78     2.65     9.39     0  01:59        2.65
  WS02006231           JUNCTION     0.53     2.20     9.32     0  02:17        2.20
  WS02006232           JUNCTION     0.63     2.18     9.22     0  01:59        2.18
  WS02006234           JUNCTION     0.52     1.96     9.12     0  01:59        1.96
  WS02006235           JUNCTION     0.54     1.95     9.12     0  02:20        1.93
  WS02006238           JUNCTION     0.56     1.97     9.11     0  02:20        1.93
  WS02006239           JUNCTION     0.50     1.82     9.03     0  02:20        1.81
  WS02006240           JUNCTION     0.46     1.65     8.95     0  02:10        1.65
  WS02006242           JUNCTION     0.51     1.55     8.82     0  01:57        1.55
  WS02006243           JUNCTION     0.41     1.37     8.79     0  02:07        1.37
  WS02006245           JUNCTION     0.40     1.32     8.81     0  01:55        1.27
  WS02006247           JUNCTION     0.42     1.28     8.78     0  01:55        1.23
  WS02006248           JUNCTION     0.37     1.10     8.69     0  01:55        1.10
  WS02006249           JUNCTION     0.40     1.09     8.69     0  01:55        1.09
  WS02006251           JUNCTION     0.42     2.21     9.88     0  02:03        2.03
  WS02006252           JUNCTION     0.30     1.50     9.74     0  02:03        1.50
  WS02006253           JUNCTION     0.47     3.52    11.16     0  01:56        2.44
  WS02006256           JUNCTION     0.84     2.35     9.28     0  00:11        2.35
  WS02006280           JUNCTION     0.19     1.76    10.03     0  02:01        1.59
  WS02006284           JUNCTION     0.46     1.92    10.32     0  02:01        1.73
  WS02006287           JUNCTION     0.20     1.69    10.65     0  02:01        1.45
  WSF200               JUNCTION     0.19     0.50     5.74     0  02:07        0.50
  YS02001580           JUNCTION     0.04     1.05     9.59     0  02:01        0.76
  YS02001583           JUNCTION     0.07     1.14     9.64     0  02:01        0.81
  YS02001586           JUNCTION     0.12     1.13     9.30     0  02:00        1.13
  YS02001590           JUNCTION     0.20     1.40     9.26     0  02:01        1.35
  YS02001593           JUNCTION     0.14     1.35     9.22     0  02:01        1.28
  YS02001596           JUNCTION     0.19     1.70     9.12     0  02:01        1.63
  YS02001600           JUNCTION     0.23     1.87     9.00     0  02:01        1.86
  YS02001601           JUNCTION     0.42     2.06     8.90     0  02:00        2.06
  YS02001602           JUNCTION     0.34     1.87     8.77     0  02:01        1.87
  YS02001605           JUNCTION     0.32     1.78     8.68     0  02:01        1.77
  YS02001607           JUNCTION     0.32     1.64     8.49     0  02:07        1.64
  YS02001610           JUNCTION     0.36     1.68     8.48     0  02:01        1.68
  YS02001613           JUNCTION     0.32     1.67     8.51     0  02:01        1.64
  YS02001616           JUNCTION     0.25     1.61     8.52     0  02:01        1.56
  YS02001619           JUNCTION     0.23     1.61     8.54     0  02:01        1.54
  YS02001622           JUNCTION     0.22     1.62     8.52     0  02:01        1.53
  YS02001625           JUNCTION     0.47     1.78     8.38     0  02:01        1.76
  YS02001629           JUNCTION     0.32     1.85     8.40     0  02:01        1.76
  YS02001633           JUNCTION     0.40     1.86     8.32     0  02:06        1.77
  YS02001641           JUNCTION     0.38     1.63     8.07     0  02:07        1.50
  YS02001644           JUNCTION     0.38     1.56     7.99     0  02:07        1.41
  YS02001647           JUNCTION     0.17     1.26     7.87     0  02:07        1.07
  YS02001649           JUNCTION     0.19     1.34     7.73     0  02:07        1.14
  YS02001652           JUNCTION     0.10     1.29     7.88     0  02:06        0.94
  YS02001655           JUNCTION     0.07     0.75     7.60     0  02:07        0.74
  YS02001658           JUNCTION     0.05     0.46     7.60     0  02:06        0.44
  YS02001661           JUNCTION     0.11     0.32     7.73     0  02:02        0.32
  YS02001664           JUNCTION     0.04     0.23     8.15     0  02:03        0.23
  YS02001745           JUNCTION     0.04     0.21     7.72     0  02:02        0.21
  YS02001748           JUNCTION     0.04     0.35     7.43     0  02:07        0.32
  YS02001751           JUNCTION     0.05     0.60     7.48     0  02:07        0.54
  YS02001754           JUNCTION     0.07     0.86     7.46     0  02:08        0.85
  YS02001757           JUNCTION     0.20     1.22     7.48     0  02:07        1.14
  YS02001759           JUNCTION     0.14     1.15     7.51     0  02:06        1.04
  YS02001762           JUNCTION     0.14     1.16     7.56     0  02:06        1.02
  YS02001765           JUNCTION     0.12     1.15     7.60     0  02:06        0.99
  YS02001767           JUNCTION     0.13     0.98     7.47     0  02:06        0.98
  YS02001770           JUNCTION     0.14     1.02     7.52     0  02:06        0.98
  YS02001774           JUNCTION     0.20     1.09     7.51     0  02:06        1.07
  YS02001779           JUNCTION     0.05     0.83     7.52     0  02:06        0.83
  YS02001783           JUNCTION     0.18     1.25     7.39     0  02:05        1.20
  YS02001784           JUNCTION     0.20     1.13     7.20     0  02:05        1.09
  YS02001786           JUNCTION     0.17     0.89     6.92     0  02:05        0.86
  YS02001788           JUNCTION     0.12     0.61     6.59     0  02:05        0.61
  YS02001790           JUNCTION     0.14     0.71     6.35     0  02:08        0.69
  YS02001791           JUNCTION     0.09     0.43     5.90     0  02:08        0.42
  YS02001793           JUNCTION     0.06     0.25     5.08     0  02:08        0.24
  YS02001882           JUNCTION     0.22     1.69     8.41     0  02:04        1.55
  YS02001884           JUNCTION     0.31     1.78     8.39     0  02:04        1.65
  YS02001887           JUNCTION     0.39     1.83     8.37     0  02:04        1.73
  YS02001890           JUNCTION     0.41     1.81     8.32     0  02:04        1.76
  YS02001895           JUNCTION     0.20     1.55     8.30     0  02:05        1.52
  YS02001898           JUNCTION     0.20     1.55     8.29     0  02:05        1.53
  YS02001901           JUNCTION     0.31     1.67     8.28     0  02:05        1.65
  YS02001904           JUNCTION     0.29     1.63     8.26     0  02:05        1.63
  YS02001907           JUNCTION     0.60     1.96     8.25     0  02:05        1.96
  YS02001910           JUNCTION     0.40     1.89     8.39     0  02:04        1.78
  YS02001915           JUNCTION     0.22     1.81     8.53     0  02:04        1.59
  YS02001918           JUNCTION     0.10     1.81     8.88     0  02:04        1.30
  YS02001920           JUNCTION     0.18     1.59     8.59     0  02:04        1.35
  YS02001923           JUNCTION     0.07     1.18     8.44     0  02:06        1.10
  YS02001926           JUNCTION     0.11     1.35     8.80     0  02:05        1.00
  YS02001929           JUNCTION     0.05     0.76     8.45     0  02:06        0.67
  YS02006553           JUNCTION     0.60     1.96     8.25     0  02:05        1.95
  YS02006556           JUNCTION     0.58     1.92     8.23     0  02:05        1.90
  YS02006558           JUNCTION     0.62     1.95     8.22     0  02:05        1.92
  YS02006561           JUNCTION     0.11     0.94     7.60     0  02:05        0.85
  YS02163301           JUNCTION     0.34     1.85     8.37     0  02:01        1.75
  YS02163601           JUNCTION     0.43     1.80     8.20     0  02:06        1.69
  YS02164001           JUNCTION     0.37     1.67     8.13     0  02:06        1.55
  YSB1154              JUNCTION     0.34     1.97    11.02     0  02:01        1.82
  YSB1171              JUNCTION     0.49     1.95    10.85     0  02:01        1.95
  YSB1174              JUNCTION     0.30     1.80    10.91     0  02:01        1.75
  YSB6556              JUNCTION     0.24     1.80    10.97     0  02:01        1.69
  CC-1                 OUTFALL      0.00     0.00     0.00     0  00:00        0.00
  CC-2                 OUTFALL      0.00     0.00     0.00     0  00:00        0.00
  JK-1                 OUTFALL      0.00     0.00     0.00     0  00:00        0.00
  JK-2                 OUTFALL      0.00     0.00     0.00     0  00:00        0.00
  WSC                  OUTFALL      0.27     0.50     1.17     0  02:09        0.50
  CC-storage           STORAGE      0.16     0.80     6.30     0  00:00        0.80
  JK-storage           STORAGE      0.04     3.00     3.80     0  00:05        3.00
  XR-storage           STORAGE      7.86     9.26     7.26     0  08:00        9.26
  
  
  *******************
  Node Inflow Summary
  *******************
  
  -------------------------------------------------------------------------------------------------
                                  Maximum  Maximum                  Lateral       Total        Flow
                                  Lateral    Total  Time of Max      Inflow      Inflow     Balance
                                   Inflow   Inflow   Occurrence      Volume      Volume       Error
  Node                 Type           LPS      LPS  days hr:min    10^6 ltr    10^6 ltr     Percent
  -------------------------------------------------------------------------------------------------
  HS02004478           JUNCTION      0.00  2126.21     0  02:02           0        5.29      -0.022
  HS02004479           JUNCTION      0.00   385.38     0  02:01           0       0.589       0.133
  HS02004480           JUNCTION      0.00  2118.52     0  02:02           0        4.17       0.068
  HS02004770           JUNCTION    673.29   801.79     0  02:01        1.18        1.39       0.218
  HS02004777           JUNCTION      0.03   815.90     0  02:01    0.000864        1.33       0.386
  HS02004785           JUNCTION      0.15   821.52     0  02:01     0.00432        1.33       0.034
  HS02004788           JUNCTION    248.60  1096.44     0  02:01       0.492        1.82      -0.042
  HS02004792           JUNCTION    799.67  1586.08     0  02:01         1.5        3.32       0.014
  HS02004799           JUNCTION    171.95  1752.13     0  02:01       0.276        3.59       0.068
  HS02004802           JUNCTION      0.00   340.84     0  02:22           0        1.17       0.336
  HS02004807           JUNCTION    218.35   459.67     0  02:01       0.339        1.22       0.349
  HS02004817           JUNCTION      0.60   459.14     0  02:01      0.0173       0.958       1.737
  HS02004824           JUNCTION    251.66   680.44     0  02:01       0.594        1.11       0.057
  HS02004830           JUNCTION      0.15   677.12     0  02:02     0.00432       0.694       0.208
  HS02004837           JUNCTION    199.94   884.42     0  02:01       0.504       0.873       0.103
  HS02004842           JUNCTION      0.00   849.27     0  02:02           0       0.552       2.441
  HS02004848           JUNCTION    223.30  1059.21     0  02:02       0.529        0.95       0.010
  HS02004852           JUNCTION      0.00   995.70     0  02:02           0       0.834       0.014
  HS02004856           JUNCTION     87.51  1034.19     0  02:03        0.14       0.973       0.185
  HS02004862           JUNCTION    105.44  1140.78     0  02:04       0.229         1.2      -0.040
  HS02004870           JUNCTION    117.46  1256.45     0  02:03       0.185        1.39       0.028
  HS02004876           JUNCTION    111.73  1340.41     0  02:03       0.191        1.58       0.043
  HS02004881           JUNCTION     65.05  1315.41     0  02:03      0.0979        1.67       0.013
  HS02004901           JUNCTION    167.45   319.27     0  02:05       0.269       0.298       0.589
  WS02001211           JUNCTION      7.35   219.99     0  02:06       0.212        5.44       0.611
  WS02001212           JUNCTION      0.00   211.34     0  02:05           0        5.41       0.290
  WS02001213           JUNCTION      0.00   215.69     0  02:29           0        5.39       0.332
  WS02003059           JUNCTION      0.00   220.64     0  02:28           0        5.38       0.596
  WS02003060           JUNCTION     16.53  1452.58     0  02:06       0.476        12.4       0.121
  WS02003066           JUNCTION      0.00  1239.48     0  02:03           0        6.57       0.023
  WS02003067           JUNCTION      0.00  1236.26     0  02:03           0        6.57       0.067
  WS02003069           JUNCTION      0.32  1445.93     0  02:07     0.00922        12.4       0.126
  WS02003072           JUNCTION      0.00  1444.26     0  02:07           0        12.4       0.170
  WS02003073           JUNCTION      1.82  1445.90     0  02:08      0.0524        12.4       0.176
  WS02004138           JUNCTION      0.00   190.00     0  00:29           0        5.25       0.054
  WS02004139           JUNCTION      0.32   190.32     0  00:32     0.00924        5.26       0.507
  WS02004401           JUNCTION      0.00  1236.17     0  02:02           0        6.68       0.170
  WS02004402           JUNCTION      0.00  1236.45     0  02:02           0        6.68       0.168
  WS02004403           JUNCTION      0.00  1236.97     0  02:02           0        6.67       0.164
  WS02004404           JUNCTION      0.16  1237.69     0  02:02     0.00467        6.66       0.134
  WS02004405           JUNCTION      0.04  1238.40     0  02:02      0.0011        6.65       0.193
  WS02004406           JUNCTION      0.00  1239.16     0  02:02           0        6.64       0.327
  WS02004407           JUNCTION      0.00  1239.01     0  02:02           0        6.61       0.024
  WS02004409           JUNCTION      0.00  1236.38     0  02:03           0        6.61       0.047
  WS02004410           JUNCTION      0.00  1236.48     0  02:04           0        6.61       0.073
  WS02004411           JUNCTION      0.00  1236.50     0  02:04           0         6.6       0.092
  WS02004412           JUNCTION      0.00  1236.31     0  02:03           0        6.59       0.124
  WS02004413           JUNCTION      0.00  1236.19     0  02:03           0        6.59       0.208
  WS02006109           JUNCTION      1.23  1308.01     0  00:00      0.0354        6.46       0.131
  WS02006110           JUNCTION      0.00  1119.04     0  02:08           0        6.42      -0.547
  WS02006111           JUNCTION      0.00  1176.04     0  00:00           0        6.45      -0.582
  WS02006112           JUNCTION    135.91  2307.30     0  00:00       0.221        6.71      -0.004
  WS02006113           JUNCTION      0.00  1119.12     0  02:08           0        6.41      -0.709
  WS02006115           JUNCTION      0.00  2152.75     0  00:00           0        6.69       0.065
  WS02006116           JUNCTION      0.00  1235.99     0  02:02           0        6.68       0.041
  WS02006228           JUNCTION      0.00  1182.60     0  02:05           0        6.41       0.100
  WS02006229           JUNCTION      0.00  2094.13     0  02:05           0        7.41       0.128
  WS02006230           JUNCTION     10.28   923.09     0  02:05       0.296        3.17       0.171
  WS02006231           JUNCTION      0.00   453.20     0  02:06           0        2.57      -0.116
  WS02006232           JUNCTION      0.00   453.26     0  02:06           0        2.57       0.192
  WS02006234           JUNCTION      0.00   453.10     0  02:04           0        2.56      -0.089
  WS02006235           JUNCTION      0.00   431.23     0  03:20           0        2.54       0.161
  WS02006238           JUNCTION      0.00   415.17     0  02:19           0        2.03      -0.117
  WS02006239           JUNCTION      0.00   414.87     0  02:04           0        2.03      -0.237
  WS02006240           JUNCTION      0.00   414.65     0  02:04           0        2.03       0.046
  WS02006242           JUNCTION      0.00   414.77     0  02:04           0        2.03       0.107
  WS02006243           JUNCTION      0.00   288.24     0  03:16           0        1.84       0.021
  WS02006245           JUNCTION      0.00   285.23     0  01:50           0        1.84       0.489
  WS02006247           JUNCTION      0.00   290.86     0  01:50           0        1.84       0.076
  WS02006248           JUNCTION      0.00   339.50     0  02:03           0        1.99      -0.062
  WS02006249           JUNCTION      0.00  1311.95     0  02:04           0        3.29       0.229
  WS02006251           JUNCTION      0.08  1311.07     0  02:04     0.00222        3.32       0.025
  WS02006252           JUNCTION      0.00   200.00     0  00:05           0        1.59      -0.565
  WS02006253           JUNCTION     17.67  1240.34     0  02:04      0.0238        1.72      -0.007
  WS02006256           JUNCTION      0.00   300.00     0  02:00           0        1.02      -0.079
  WS02006280           JUNCTION      0.00  2092.75     0  02:05           0        5.27       0.022
  WS02006284           JUNCTION      0.10  2092.02     0  02:05     0.00275        5.27       0.013
  WS02006287           JUNCTION      0.00  2091.24     0  02:05           0        5.27       0.017
  WSF200               JUNCTION      0.00  1238.73     0  02:03           0        6.57       0.012
  YS02001580           JUNCTION      0.00   149.71     0  02:01           0     0.00442       1.570
  YS02001583           JUNCTION      0.00   247.65     0  02:01           0      0.0148     -10.085
  YS02001586           JUNCTION    288.27   288.66     0  02:05       0.747       0.759       0.225
  YS02001590           JUNCTION      0.00   288.48     0  02:05           0       0.744      -0.033
  YS02001593           JUNCTION      0.00   288.60     0  02:05           0       0.745       0.019
  YS02001596           JUNCTION      0.00   288.70     0  02:05           0       0.744      -0.014
  YS02001600           JUNCTION      0.00   288.65     0  02:05           0       0.745       0.010
  YS02001601           JUNCTION    557.93   843.16     0  02:04         1.1        1.84       0.044
  YS02001602           JUNCTION      0.00   566.82     0  02:01           0        1.59       0.025
  YS02001605           JUNCTION      0.00   566.81     0  02:01           0        1.58       0.026
  YS02001607           JUNCTION      0.00   566.62     0  02:01           0        1.58       0.122
  YS02001610           JUNCTION      0.00   551.43     0  02:01           0        1.58       0.144
  YS02001613           JUNCTION      0.00   560.25     0  02:01           0        1.58       0.104
  YS02001616           JUNCTION      0.00   572.30     0  02:01           0        1.58       0.040
  YS02001619           JUNCTION    504.62   952.98     0  02:01        1.17        2.75       0.005
  YS02001622           JUNCTION      0.00   950.77     0  02:01           0        2.75      -0.010
  YS02001625           JUNCTION      0.00   948.76     0  02:01           0        2.75       0.323
  YS02001629           JUNCTION      0.00   951.01     0  02:01           0        2.74       0.019
  YS02001633           JUNCTION    411.25  1317.26     0  02:03       0.786        3.52       0.099
  YS02001641           JUNCTION      0.00  1318.37     0  02:03           0        3.52       0.081
  YS02001644           JUNCTION    369.23  1688.17     0  02:03       0.676        4.19       0.082
  YS02001647           JUNCTION      0.00  1687.94     0  02:03           0        4.18       0.005
  YS02001649           JUNCTION      0.00  2029.22     0  02:03           0        4.78       0.011
  YS02001652           JUNCTION      0.00   446.96     0  02:07           0       0.597      -0.207
  YS02001655           JUNCTION      0.15   463.76     0  02:09     0.00443       0.598       0.132
  YS02001658           JUNCTION      0.00   357.79     0  02:02           0       0.594      -0.004
  YS02001661           JUNCTION      0.00   357.70     0  02:03           0       0.594       0.053
  YS02001664           JUNCTION    357.76   357.76     0  02:03       0.594       0.594      -0.003
  YS02001745           JUNCTION    245.35   245.35     0  02:02       0.377       0.377       0.057
  YS02001748           JUNCTION      0.04   245.57     0  02:02      0.0013       0.378      -0.055
  YS02001751           JUNCTION      0.01   278.57     0  02:07    0.000317       0.378       0.214
  YS02001754           JUNCTION      0.26   357.20     0  02:08     0.00749       0.385      -0.264
  YS02001757           JUNCTION      0.00  2823.23     0  02:04           0         6.5      -0.021
  YS02001759           JUNCTION    335.68   712.72     0  02:10       0.515        1.33      -0.005
  YS02001762           JUNCTION      0.00   501.64     0  02:10           0       0.816       0.009
  YS02001765           JUNCTION      0.00   486.66     0  02:10           0       0.816       0.012
  YS02001767           JUNCTION      0.54   472.70     0  02:07      0.0154       0.817       0.019
  YS02001770           JUNCTION    472.78   472.78     0  02:03       0.802       0.843      -0.004
  YS02001774           JUNCTION      0.00   105.59     0  02:03           0      0.0612       1.856
  YS02001779           JUNCTION      0.01    70.15     0  02:05    0.000144      0.0194      -0.146
  YS02001783           JUNCTION      0.00  1139.93     0  02:06           0        2.51       0.011
  YS02001784           JUNCTION      1.06  1141.09     0  02:06      0.0305        2.54       0.020
  YS02001786           JUNCTION      0.06  1141.06     0  02:06     0.00162        2.55       0.025
  YS02001788           JUNCTION      0.07  1141.72     0  02:06     0.00204        2.55       0.013
  YS02001790           JUNCTION      0.15  1154.74     0  02:07     0.00446        2.55       0.017
  YS02001791           JUNCTION      0.00  1257.35     0  02:08           0        2.55       0.001
  YS02001793           JUNCTION      0.00  1212.20     0  02:08           0        2.55       0.007
  YS02001882           JUNCTION      0.00    65.20     0  02:01           0      0.0131       4.601
  YS02001884           JUNCTION      0.00   106.58     0  02:01           0      0.0489       5.437
  YS02001887           JUNCTION    381.90   408.47     0  02:02       0.556       0.589       0.766
  YS02001890           JUNCTION      0.00   411.01     0  02:02           0       0.548       0.931
  YS02001895           JUNCTION      0.00   411.17     0  02:02           0       0.543       0.267
  YS02001898           JUNCTION      0.00   400.82     0  02:02           0       0.542       0.076
  YS02001901           JUNCTION      0.00   409.77     0  02:02           0       0.544       0.575
  YS02001904           JUNCTION      0.00   408.53     0  02:02           0       0.549       0.526
  YS02001907           JUNCTION      0.00   949.57     0  02:07           0        1.79       1.006
  YS02001910           JUNCTION      0.00   683.05     0  02:07           0        1.24       0.574
  YS02001915           JUNCTION    404.49   683.11     0  02:07        0.76        1.27       0.126
  YS02001918           JUNCTION      0.00   322.99     0  02:02           0       0.522       0.024
  YS02001920           JUNCTION      2.87   314.80     0  02:07      0.0827       0.506       0.218
  YS02001923           JUNCTION      0.04   330.69     0  02:07     0.00109       0.415      -0.083
  YS02001926           JUNCTION      0.05   334.12     0  02:05      0.0015       0.406       0.100
  YS02001929           JUNCTION    190.61   190.61     0  02:04         0.4         0.4       0.000
  YS02006553           JUNCTION      0.00   780.47     0  02:10           0        1.76       0.672
  YS02006556           JUNCTION      0.00   780.72     0  02:10           0        1.76       0.461
  YS02006558           JUNCTION    481.29  1140.35     0  02:06       0.805        2.54       0.144
  YS02006561           JUNCTION      0.00  1140.07     0  02:06           0        2.51      -0.004
  YS02163301           JUNCTION      0.00   907.71     0  02:03           0        2.74       0.055
  YS02163601           JUNCTION      0.11  1317.88     0  02:03     0.00317        3.52       0.137
  YS02164001           JUNCTION      0.00  1318.48     0  02:03           0        3.52       0.068
  YSB1154              JUNCTION    195.35   195.35     0  02:03       0.331       0.332       0.432
  YSB1171              JUNCTION      0.00   377.31     0  02:01           0       0.589       1.079
  YSB1174              JUNCTION    177.57   177.57     0  02:02        0.25        0.25       0.505
  YSB6556              JUNCTION      0.00   195.63     0  02:03           0       0.333       0.367
  CC-1                 OUTFALL       0.00   683.00     0  00:05           0        3.87       0.000
  CC-2                 OUTFALL       0.00   683.00     0  00:05           0         4.1       0.000
  JK-1                 OUTFALL       0.00  1000.00     0  00:05           0        2.07       0.000
  JK-2                 OUTFALL       0.00  1000.00     0  01:50           0         1.6       0.000
  WSC                  OUTFALL       0.00  1446.09     0  02:09           0        12.4       0.000
  CC-storage           STORAGE       0.00  2766.46     0  02:11           0        8.73      -8.687
  JK-storage           STORAGE       0.00  1253.08     0  02:08           0         2.7     -42.330
  XR-storage           STORAGE     200.00   200.00     0  00:00        5.76        6.36       0.001
  
  
  **********************
  Node Surcharge Summary
  **********************
  
  Surcharging occurs when water rises above the top of the highest conduit.
  ---------------------------------------------------------------------
                                               Max. Height   Min. Depth
                                   Hours       Above Crown    Below Rim
  Node                 Type      Surcharged         Meters       Meters
  ---------------------------------------------------------------------
  HS02004478           JUNCTION        0.17          0.600        0.340
  HS02004479           JUNCTION        0.28          0.894        0.156
  HS02004480           JUNCTION        0.31          0.947        0.153
  HS02004770           JUNCTION        0.23          0.720        0.000
  HS02004777           JUNCTION        0.24          0.780        0.000
  HS02004785           JUNCTION        0.20          0.790        0.000
  HS02004788           JUNCTION        0.18          0.720        0.000
  HS02004792           JUNCTION        0.28          0.900        0.000
  HS02004799           JUNCTION        0.37          1.060        0.000
  HS02004802           JUNCTION        0.31          0.990        0.220
  HS02004807           JUNCTION        0.30          1.182        0.038
  HS02004817           JUNCTION        0.72          1.702        0.038
  HS02004824           JUNCTION        0.18          1.295        0.015
  HS02004830           JUNCTION        0.16          1.330        0.000
  HS02004837           JUNCTION        0.12          1.314        0.026
  HS02004842           JUNCTION        0.24          1.520        0.000
  HS02004848           JUNCTION        0.07          1.370        0.000
  HS02004852           JUNCTION        0.10          1.420        0.000
  HS02004856           JUNCTION        0.09          1.300        0.000
  HS02004862           JUNCTION        0.10          1.300        0.000
  HS02004870           JUNCTION        0.11          1.260        0.140
  HS02004876           JUNCTION        0.17          1.284        0.276
  HS02004881           JUNCTION        0.14          1.450        0.000
  HS02004901           JUNCTION        0.24          0.720        0.000
  WS02004401           JUNCTION        1.19          0.727        0.933
  WS02004402           JUNCTION        1.22          0.678        1.062
  WS02004403           JUNCTION        1.22          0.612        1.418
  WS02004404           JUNCTION        1.31          0.627        2.153
  WS02004405           JUNCTION        1.30          0.578        2.222
  WS02004406           JUNCTION        1.27          0.478        1.972
  WS02004409           JUNCTION        0.51          0.316        2.044
  WS02004410           JUNCTION        0.48          0.232        2.308
  WS02004411           JUNCTION        0.45          0.155        2.375
  WS02004412           JUNCTION        0.38          0.071        2.239
  WS02004413           JUNCTION        0.84          0.124        2.076
  WS02006109           JUNCTION        1.66          1.820        0.000
  WS02006110           JUNCTION        1.42          1.430        0.420
  WS02006111           JUNCTION        0.76          0.784        1.086
  WS02006112           JUNCTION        1.47          1.680        0.000
  WS02006113           JUNCTION        0.79          0.959        0.971
  WS02006115           JUNCTION        1.10          0.790        1.460
  WS02006116           JUNCTION        1.12          0.742        1.548
  WS02006228           JUNCTION        1.65          2.200        0.000
  WS02006229           JUNCTION        0.47          1.059        0.011
  WS02006230           JUNCTION        1.32          1.570        0.000
  WS02006231           JUNCTION        1.36          1.486        0.044
  WS02006232           JUNCTION        1.49          1.480        0.000
  WS02006234           JUNCTION        1.39          1.240        0.000
  WS02006235           JUNCTION        1.40          1.245        0.045
  WS02006238           JUNCTION        1.42          1.246        0.184
  WS02006239           JUNCTION        1.36          1.081        0.209
  WS02006240           JUNCTION        1.34          0.943        0.447
  WS02006242           JUNCTION        1.35          0.820        0.000
  WS02006243           JUNCTION        1.30          0.661        0.109
  WS02006245           JUNCTION        1.26          0.611        0.239
  WS02006247           JUNCTION        1.27          0.574        0.186
  WS02006248           JUNCTION        1.22          0.380        0.000
  WS02006249           JUNCTION        1.23          0.390        0.000
  WS02006251           JUNCTION        1.07          1.180        0.000
  WS02006252           JUNCTION        1.14          1.100        0.000
  WS02006253           JUNCTION        1.08          2.480        0.000
  WS02006256           JUNCTION        7.29          2.050        0.000
  WS02006280           JUNCTION        0.39          0.712        0.068
  WS02006284           JUNCTION        0.32          0.644        0.156
  WS02006287           JUNCTION        0.25          0.692        0.198
  YS02001580           JUNCTION        0.17          0.450        0.000
  YS02001583           JUNCTION        0.18          0.500        0.000
  YS02001586           JUNCTION        0.33          0.510        0.000
  YS02001590           JUNCTION        0.39          0.750        0.000
  YS02001593           JUNCTION        0.39          0.734        0.106
  YS02001596           JUNCTION        0.48          0.967        0.103
  YS02001600           JUNCTION        0.59          1.190        0.000
  YS02001601           JUNCTION        0.90          1.440        0.000
  YS02001602           JUNCTION        0.79          1.270        0.000
  YS02001605           JUNCTION        0.75          1.180        0.000
  YS02001607           JUNCTION        0.33          0.642        0.038
  YS02001610           JUNCTION        0.35          0.680        0.000
  YS02001613           JUNCTION        0.32          0.673        0.027
  YS02001616           JUNCTION        0.28          0.610        0.000
  YS02001619           JUNCTION        0.27          0.610        0.000
  YS02001622           JUNCTION        0.26          0.620        0.000
  YS02001625           JUNCTION        0.43          0.780        0.000
  YS02001629           JUNCTION        0.18          0.470        0.000
  YS02001633           JUNCTION        0.44          0.842        0.218
  YS02001641           JUNCTION        0.35          0.630        0.470
  YS02001644           JUNCTION        0.30          0.562        0.358
  YS02001647           JUNCTION        0.08          0.257        0.643
  YS02001649           JUNCTION        0.13          0.340        0.710
  YS02001652           JUNCTION        0.01          0.257        0.873
  YS02001757           JUNCTION        0.10          0.224        0.986
  YS02001759           JUNCTION        0.06          0.149        1.061
  YS02001762           JUNCTION        0.04          0.163        0.987
  YS02001765           JUNCTION        0.01          0.151        0.949
  YS02001774           JUNCTION        0.06          0.092        0.958
  YS02001783           JUNCTION        0.26          0.454        1.146
  YS02001784           JUNCTION        0.23          0.333        1.157
  YS02001786           JUNCTION        0.12          0.088        1.342
  YS02001882           JUNCTION        0.21          0.692        0.138
  YS02001884           JUNCTION        0.22          0.718        0.152
  YS02001887           JUNCTION        0.25          0.777        0.173
  YS02001890           JUNCTION        0.26          0.760        0.000
  YS02001895           JUNCTION        0.20          0.551        0.199
  YS02001898           JUNCTION        0.19          0.521        0.219
  YS02001901           JUNCTION        0.23          0.667        0.203
  YS02001904           JUNCTION        0.23          0.633        0.217
  YS02001907           JUNCTION        0.42          0.950        0.000
  YS02001910           JUNCTION        0.28          0.887        0.213
  YS02001915           JUNCTION        0.20          0.810        0.190
  YS02001918           JUNCTION        0.11          0.810        0.000
  YS02001920           JUNCTION        0.13          0.586        0.554
  YS02001926           JUNCTION        0.01          0.352        0.548
  YS02006553           JUNCTION        0.43          0.964        0.226
  YS02006556           JUNCTION        0.35          0.877        0.473
  YS02006558           JUNCTION        0.34          0.854        0.546
  YS02006561           JUNCTION        0.06          0.139        1.011
  YS02163301           JUNCTION        0.42          0.851        0.179
  YS02163601           JUNCTION        0.46          0.801        0.279
  YS02164001           JUNCTION        0.36          0.672        0.428
  YSB1154              JUNCTION        0.45          1.265        0.135
  YSB1171              JUNCTION        0.45          1.100        0.000
  YSB1174              JUNCTION        0.40          1.104        0.146
  YSB6556              JUNCTION        0.35          1.100        0.000
  
  
  *********************
  Node Flooding Summary
  *********************
  
  Flooding refers to all water that overflows a node, whether it ponds or not.
  --------------------------------------------------------------------------
                                                             Total   Maximum
                                 Maximum   Time of Max       Flood    Ponded
                        Hours       Rate    Occurrence      Volume     Depth
  Node                 Flooded       LPS   days hr:min    10^6 ltr    Meters
  --------------------------------------------------------------------------
  HS02004770              0.07    224.12      0  02:01       0.031     0.000
  HS02004777              0.01     44.49      0  02:01       0.000     0.000
  HS02004785              0.01     70.15      0  02:01       0.000     0.000
  HS02004788              0.01    559.02      0  02:01       0.003     0.000
  HS02004792              0.02     92.35      0  02:04       0.003     0.000
  HS02004799              0.01     30.58      0  02:01       0.000     0.000
  HS02004830              0.01     16.24      0  02:04       0.000     0.000
  HS02004842              0.01     83.06      0  02:04       0.000     0.000
  HS02004848              0.01     28.23      0  02:04       0.000     0.000
  HS02004852              0.01    226.41      0  02:04       0.000     0.000
  HS02004856              0.01     19.89      0  02:04       0.000     0.000
  HS02004862              0.01    368.31      0  02:04       0.001     0.000
  HS02004881              0.01    110.36      0  02:03       0.000     0.000
  HS02004901              0.13    319.26      0  02:05       0.086     0.000
  WS02006109              0.12     77.35      0  02:05       0.013     0.000
  WS02006112              0.01   1153.65      0  00:00       0.035     0.000
  WS02006228              0.01      4.56      0  02:01       0.000     0.000
  WS02006230              0.33    470.09      0  02:05       0.309     0.000
  WS02006232              0.10      0.41      0  02:11       0.000     0.000
  WS02006234              0.36    128.35      0  02:02       0.154     0.000
  WS02006242              0.44    138.21      0  02:00       0.192     0.000
  WS02006248              0.69    339.46      0  02:03       0.639     0.000
  WS02006249              1.05   1250.56      0  02:04       1.793     0.000
  WS02006251              0.01     41.04      0  02:03       0.000     0.000
  WS02006252              0.02    133.18      0  02:04       0.003     0.000
  WS02006253              0.01    336.90      0  01:56       0.000     0.000
  WS02006256              0.74    287.13      0  02:00       0.395     0.000
  YS02001580              0.01     78.57      0  02:01       0.000     0.000
  YS02001583              0.01    182.44      0  02:01       0.000     0.000
  YS02001586              0.01    106.64      0  02:01       0.002     0.000
  YS02001590              0.01      2.36      0  02:01       0.000     0.000
  YS02001600              0.01      2.69      0  02:01       0.000     0.000
  YS02001601              0.26    443.02      0  02:04       0.253     0.000
  YS02001602              0.11     45.45      0  02:06       0.009     0.000
  YS02001605              0.01      3.17      0  02:01       0.000     0.000
  YS02001610              0.01     21.55      0  02:01       0.000     0.000
  YS02001616              0.01      7.54      0  02:01       0.000     0.000
  YS02001619              0.01    104.44      0  02:01       0.000     0.000
  YS02001622              0.01    203.16      0  02:01       0.000     0.000
  YS02001625              0.01     71.45      0  02:01       0.001     0.000
  YS02001629              0.01    257.08      0  02:01       0.001     0.000
  YS02001890              0.01      2.31      0  02:04       0.000     0.000
  YS02001907              0.04    211.98      0  02:06       0.021     0.000
  YS02001918              0.01    107.17      0  02:04       0.000     0.000
  YSB1171                 0.01     61.35      0  02:01       0.001     0.000
  YSB6556                 0.01     12.51      0  02:01       0.000     0.000
  
  
  **********************
  Storage Volume Summary
  **********************
  
  ------------------------------------------------------------------------------------------------
                         Average    Avg   Evap  Exfil     Maximum    Max    Time of Max    Maximum
                          Volume   Pcnt   Pcnt   Pcnt      Volume   Pcnt     Occurrence    Outflow
  Storage Unit           1000 m   Full   Loss   Loss     1000 m   Full    days hr:min        LPS
  ------------------------------------------------------------------------------------------------
  CC-storage               0.457    7.1    0.0    0.0       2.230   34.8       0  00:00    1566.00
  JK-storage               0.002    0.7    0.0    0.0       0.151   51.7       0  00:05    2300.00
  XR-storage               0.943   65.5    0.0    0.0       1.111   77.1       0  08:00     190.00
  
  
  ***********************
  Outfall Loading Summary
  ***********************
  
  -----------------------------------------------------------
                         Flow       Avg       Max       Total
                         Freq      Flow      Flow      Volume
  Outfall Node           Pcnt       LPS       LPS    10^6 ltr
  -----------------------------------------------------------
  CC-1                  40.95    475.10    683.00       3.865
  CC-2                  87.40    264.48    683.00       4.104
  JK-1                  80.94    129.65   1000.00       2.072
  JK-2                  47.86    162.90   1000.00       1.595
  WSC                   99.99    519.22   1446.09      12.373
  -----------------------------------------------------------
  System                71.43   1551.34   4129.09      24.010
  
  
  ********************
  Link Flow Summary
  ********************
  
  -----------------------------------------------------------------------------
                                 Maximum  Time of Max   Maximum    Max/    Max/
                                  |Flow|   Occurrence   |Veloc|    Full    Full
  Link                 Type          LPS  days hr:min     m/sec    Flow   Depth
  -----------------------------------------------------------------------------
  1                    CONDUIT   1446.09     0  02:09      3.66    0.50    0.50
  HS02004478WS02006287 CONDUIT   2091.24     0  02:05      2.56    0.59    1.00
  HS02004479HS02004480 CONDUIT    393.84     0  02:01      0.56    0.38    1.00
  HS02004480HS02004478 CONDUIT   2126.21     0  02:02      3.04    8.96    1.00
  HS02004770HS02004777 CONDUIT    815.87     0  02:01      1.17    1.49    1.00
  HS02004777HS02004785 CONDUIT    821.37     0  02:01      1.21    1.01    1.00
  HS02004785HS02004788 CONDUIT    866.09     0  02:01      1.35    6.53    1.00
  HS02004788HS02004792 CONDUIT    824.44     0  02:01      1.47    0.55    1.00
  HS02004792HS02004799 CONDUIT   1586.43     0  02:01      2.27    0.97    1.00
  HS02004799HS02004480 CONDUIT   1747.65     0  02:01      2.50    2.21    1.00
  HS02004802HS02004478 CONDUIT    356.40     0  02:22      0.71    0.31    1.00
  HS02004807HS02004802 CONDUIT    340.84     0  02:22      0.63    0.65    1.00
  HS02004817HS02004807 CONDUIT    458.54     0  02:01      0.66    0.27    1.00
  HS02004817HS02004824 CONDUIT    457.84     0  02:01      0.65    0.21    1.00
  HS02004824HS02004830 CONDUIT    676.97     0  02:02      1.01    0.89    1.00
  HS02004830HS02004837 CONDUIT    687.13     0  02:01      1.06    0.68    1.00
  HS02004837HS02004842 CONDUIT    849.27     0  02:02      1.21    0.51    1.00
  HS02004842HS02004848 CONDUIT    848.94     0  02:02      1.35    0.49    1.00
  HS02004848HS02004852 CONDUIT    995.70     0  02:02      1.61    1.12    1.00
  HS02004852HS02004856 CONDUIT    948.86     0  02:03      1.46    1.09    1.00
  HS02004856HS02004862 CONDUIT   1035.43     0  02:04      1.69    1.03    1.00
  HS02004862HS02004870 CONDUIT   1142.06     0  02:03      1.93    1.23    1.00
  HS02004870HS02004876 CONDUIT   1229.72     0  02:03      1.96    0.82    1.00
  HS02004876HS02004881 CONDUIT   1253.38     0  02:03      2.41   13.33    1.00
  HS02004881HS02006253 CONDUIT   1226.41     0  02:04      2.53    0.24    1.00
  HS02004901HS02004770 CONDUIT    173.90     0  02:05      0.25    0.65    1.00
  WS02001211WS02001212 CONDUIT    211.34     0  02:05      0.54    0.16    0.68
  WS02001212WS02001213 CONDUIT    215.69     0  02:29      1.03    0.33    0.55
  WS02001213WS02003059 CONDUIT    220.64     0  02:28      0.47    0.36    0.88
  WS02003059WS02003060 CONDUIT    226.87     0  02:28      0.66    0.15    0.80
  WS02003060WS02003069 CONDUIT   1445.61     0  02:07      2.07    0.57    0.59
  WS02003066WSF200     CONDUIT   1238.73     0  02:03      3.36    0.21    0.37
  WS02003067WS02003066 CONDUIT   1239.48     0  02:03      1.97    0.40    0.55
  WS02003069WS02003072 CONDUIT   1444.26     0  02:07      1.87    0.70    0.65
  WS02003072WS02003073 CONDUIT   1444.08     0  02:08      2.02    3.12    0.60
  WS02004138WS02004139 CONDUIT    190.00     0  00:32      2.17    0.04    0.41
  WS02004139WS02001211 CONDUIT    212.64     0  02:06      0.55    0.27    0.59
  WS02004401WS02004402 CONDUIT   1236.45     0  02:02      2.07    1.48    1.00
  WS02004402WS02004403 CONDUIT   1236.97     0  02:02      1.84    1.78    1.00
  WS02004403WS02004404 CONDUIT   1237.52     0  02:02      1.68    0.89    1.00
  WS02004404WS02004405 CONDUIT   1238.36     0  02:02      1.86   12.13    1.00
  WS02004405WS02004406 CONDUIT   1239.16     0  02:02      1.80    2.44    1.00
  WS02004406WS02004407 CONDUIT   1239.01     0  02:02      1.88    0.55    0.91
  WS02004407WS02004409 CONDUIT   1236.38     0  02:03      1.90    0.44    0.91
  WS02004409WS02004410 CONDUIT   1236.48     0  02:04      1.57    1.60    1.00
  WS02004410WS02004411 CONDUIT   1236.50     0  02:04      1.57    1.69    1.00
  WS02004411WS02004412 CONDUIT   1236.31     0  02:03      1.57    1.76    1.00
  WS02004412WS02004413 CONDUIT   1236.19     0  02:03      1.57    0.83    1.00
  WS02004413WS02003067 CONDUIT   1236.26     0  02:03      1.93    0.53    0.76
  WS02006109WS02006110 CONDUIT   1306.78     0  00:00      3.15    2.51    1.00
  WS02006110WS02006113 CONDUIT   1119.12     0  02:08      2.23    1.02    1.00
  WS02006111WS02006112 CONDUIT   2307.30     0  00:00      9.18    1.10    1.00
  WS02006112WS02006115 CONDUIT   2152.75     0  00:00      2.85    1.27    1.00
  WS02006113WS02006111 CONDUIT   1176.04     0  00:00      2.69    1.41    1.00
  WS02006115WS02006116 CONDUIT   1235.99     0  02:02      1.81    1.59    1.00
  WS02006116WS02004401 CONDUIT   1236.17     0  02:02      2.21    1.70    1.00
  WS02006228WS02006109 CONDUIT   1182.85     0  02:05      2.35    5.17    1.00
  WS02006229WS02006228 CONDUIT   1182.60     0  02:05      2.35    3.92    1.00
  WS02006230WS02006229 CONDUIT    912.81     0  02:05      2.37   20.31    1.00
  WS02006231WS02006230 CONDUIT    453.20     0  02:06      1.29    6.87    1.00
  WS02006232WS02006231 CONDUIT    453.26     0  02:06      1.18    0.95    1.00
  WS02006234WS02006232 CONDUIT    453.10     0  02:04      1.18    0.92    1.00
  WS02006235WS02006234 CONDUIT    414.13     0  02:59      1.08    4.37    1.00
  WS02006238WS02006235 CONDUIT    415.17     0  02:19      1.23    0.93    1.00
  WS02006239WS02006238 CONDUIT    414.87     0  02:04      1.08    1.33    1.00
  WS02006240WS02006239 CONDUIT    414.65     0  02:04      1.09    1.30    1.00
  WS02006242WS02006240 CONDUIT    414.77     0  02:04      1.08    1.65    1.00
  WS02006243WS02006242 CONDUIT    301.45     0  03:15      1.14    0.64    1.00
  WS02006245WS02006243 CONDUIT    288.24     0  03:16      1.22    0.85    1.00
  WS02006247WS02006245 CONDUIT    285.23     0  01:50      1.18    2.26    1.00
  WS02006248WS02006247 CONDUIT    290.86     0  01:50      1.18    0.63    1.00
  WS02006249WS02006248 CONDUIT    293.48     0  01:50      1.16    1.61    1.00
  WS02006251WS02006249 CONDUIT   1311.95     0  02:04      3.41    3.78    1.00
  WS02006252WS02006251 CONDUIT   1298.45     0  00:05     20.66    4.77    1.00
  WS02006253WS02006251 CONDUIT   1242.79     0  02:04      3.23    3.73    1.00
  WS02006256WS02006235 CONDUIT    231.51     0  03:55      3.28    2.45    1.00
  WS02006280WS02006229 CONDUIT   2094.13     0  02:05      4.50    0.45    1.00
  WS02006284WS02006280 CONDUIT   2092.75     0  02:05      3.01    0.88    1.00
  WS02006287WS02006284 CONDUIT   2091.92     0  02:05      2.78    0.97    1.00
  WSF200WS02003060     CONDUIT   1240.89     0  02:03      2.45    0.28    0.49
  YS02001580YS02001583 CONDUIT    149.71     0  02:01      0.86    0.58    1.00
  YS02001583YS02001586 CONDUIT    182.24     0  02:01      0.85    0.28    1.00
  YS02001586YS02001590 CONDUIT    288.48     0  02:05      1.28    0.51    1.00
  YS02001590YS02001593 CONDUIT    288.60     0  02:05      1.03    1.81    1.00
  YS02001593YS02001596 CONDUIT    288.70     0  02:05      1.69    0.46    1.00
  YS02001596YS02001600 CONDUIT    288.65     0  02:05      1.18    0.56    1.00
  YS02001600YS02001601 CONDUIT    288.69     0  02:05      1.02    0.50    1.00
  YS02001601YS02001602 CONDUIT    566.82     0  02:01      2.00    2.05    1.00
  YS02001602YS02001605 CONDUIT    566.81     0  02:01      2.00   11.99    1.00
  YS02001605YS02001607 CONDUIT    566.62     0  02:01      2.00    3.11    1.00
  YS02001607YS02001610 CONDUIT    551.43     0  02:01      0.70    0.52    1.00
  YS02001610YS02001613 CONDUIT    560.25     0  02:01      0.71    0.65    1.00
  YS02001613YS02001616 CONDUIT    572.30     0  02:01      0.73    0.49    1.00
  YS02001616YS02001619 CONDUIT    514.84     0  02:01      0.68    0.89    1.00
  YS02001619YS02001622 CONDUIT    950.77     0  02:01      1.26    1.40    1.00
  YS02001622YS02001625 CONDUIT    948.76     0  02:01      1.21    0.51    1.00
  YS02001625YS02001629 CONDUIT    951.01     0  02:01      1.22    0.45    1.00
  YS02001629YS02163301 CONDUIT    907.71     0  02:03      1.16    1.12    1.00
  YS02001633YS02163601 CONDUIT   1317.77     0  02:03      1.68    1.38    1.00
  YS02001641YS02001644 CONDUIT   1318.95     0  02:03      1.68    4.26    1.00
  YS02001644YS02001647 CONDUIT   1687.94     0  02:03      2.24    0.99    1.00
  YS02001647YS02001649 CONDUIT   1708.60     0  02:03      2.32    0.90    1.00
  YS02001649YS02001757 CONDUIT   2015.99     0  02:03      2.58    1.22    1.00
  YS02001652YS02001649 CONDUIT    452.66     0  02:09      0.77    0.22    1.00
  YS02001655YS02001652 CONDUIT    446.96     0  02:07      1.41    0.22    0.87
  YS02001658YS02001655 CONDUIT    463.61     0  02:09      2.01    0.20    0.59
  YS02001661YS02001658 CONDUIT    357.79     0  02:02      2.22    0.14    0.35
  YS02001664YS02001661 CONDUIT    357.70     0  02:03      2.04    0.11    0.27
  YS02001745YS02001748 CONDUIT    245.53     0  02:02      2.08    0.09    0.23
  YS02001748YS02001751 CONDUIT    278.56     0  02:07      1.75    0.14    0.44
  YS02001751YS02001754 CONDUIT    356.94     0  02:08      1.49    0.17    0.66
  YS02001754YS02001757 CONDUIT    353.46     0  02:10      0.51    0.14    0.93
  YS02001757CaochengTiaoxuchi CONDUIT   2766.46     0  02:11      6.76    1.20    0.67
  YS02001759YS02001757 CONDUIT    728.59     0  02:10      0.95    0.52    1.00
  YS02001762YS02001759 CONDUIT    517.48     0  02:10      0.71    0.60    1.00
  YS02001765YS02001762 CONDUIT    501.64     0  02:10      0.71    0.47    1.00
  YS02001767YS02001765 CONDUIT    486.66     0  02:10      0.74    0.61    0.99
  YS02001770YS02001767 CONDUIT    472.16     0  02:07      0.78    1.87    0.99
  YS02001774YS02001770 CONDUIT    130.49     0  02:11      0.19    0.08    1.00
  YS02001779YS02001774 CONDUIT     89.43     0  02:11      0.14    0.05    0.92
  YS02001783YS02001784 CONDUIT   1140.03     0  02:06      2.27    1.57    1.00
  YS02001784YS02001785 CONDUIT   1141.01     0  02:06      2.27    2.66    1.00
  YS02001786YS02001788 CONDUIT   1141.65     0  02:06      2.45    2.20    0.88
  YS02001788YS02001790 CONDUIT   1154.58     0  02:07      2.70    0.85    0.82
  YS02001790YS02001791 CONDUIT   1257.35     0  02:08      3.40    1.37    0.69
  YS02001791YS02001793 CONDUIT   1212.20     0  02:08      6.28    0.52    0.42
  YS02001793JiankangQianchi CONDUIT   1253.08     0  02:08     24.29    0.10    0.50
  YS02001882YS02001884 CONDUIT     65.20     0  02:01      0.09    0.07    1.00
  YS02001884YS02001887 CONDUIT    106.58     0  02:01      0.14    0.14    1.00
  YS02001887YS02001890 CONDUIT    411.01     0  02:02      0.52    0.70    1.00
  YS02001890YS02001895 CONDUIT    411.17     0  02:02      0.53    0.19    1.00
  YS02001895YS02001898 CONDUIT    400.82     0  02:02      0.51    0.70    1.00
  YS02001898YS02001901 CONDUIT    409.77     0  02:02      0.52    0.26    1.00
  YS02001901YS02001904 CONDUIT    408.53     0  02:02      0.52    0.63    1.00
  YS02001904YS02001907 CONDUIT    407.60     0  02:02      0.52    0.14    1.00
  YS02001907YS02006553 CONDUIT    780.47     0  02:10      0.87    0.92    1.00
  YS02001910YS02001907 CONDUIT    683.26     0  02:07      0.87    0.39    1.00
  YS02001915YS02001910 CONDUIT    683.05     0  02:07      0.87    0.34    1.00
  YS02001918YS02001915 CONDUIT    338.21     0  02:13      0.46    0.19    1.00
  YS02001920YS02001918 CONDUIT    321.34     0  02:13      0.64    0.31    1.00
  YS02001923YS02001920 CONDUIT    311.93     0  02:07      0.74    0.14    1.00
  YS02001926YS02001923 CONDUIT    330.65     0  02:07      0.96    0.47    0.95
  YS02001929YS02001926 CONDUIT    282.29     0  02:06      1.08    0.13    0.86
  YS02006553YS02006556 CONDUIT    780.72     0  02:10      0.99    0.67    1.00
  YS02006556YS02006558 CONDUIT    781.79     0  02:10      1.00    0.62    1.00
  YS02006558YS02006561 CONDUIT   1140.07     0  02:06      4.03    2.52    1.00
  YS02006561YS02001783 CONDUIT   1139.93     0  02:06      2.28    0.59    1.00
  YS02163301YS02001633 CONDUIT    908.10     0  02:03      1.16    0.85    1.00
  YS02163601YS02164001 CONDUIT   1318.48     0  02:03      1.68    1.17    1.00
  YS02164001YS02001641 CONDUIT   1318.37     0  02:03      1.68    1.80    1.00
  YSB1154YSB6556       CONDUIT    195.63     0  02:03      0.51    0.35    1.00
  YSB1171HS02004479    CONDUIT    385.38     0  02:01      0.77    0.26    1.00
  YSB1174YSB1171       CONDUIT    178.90     0  02:01      0.46    0.27    1.00
  YSB6556YSB1171       CONDUIT    198.42     0  02:01      0.52    0.20    1.00
  CC-R1                PUMP       683.00     0  00:05              1.00
  CC-R2                PUMP       683.00     0  00:05              1.00
  CC-S1                PUMP       200.00     0  01:45              1.00
  CC-S2                PUMP       200.00     0  00:05              1.00
  JK-R1                PUMP      1000.00     0  00:05              1.00
  JK-R2                PUMP      1000.00     0  01:50              1.00
  JK-S                 PUMP       300.00     0  02:00              1.00
  XR-1                 PUMP        95.00     0  00:10              1.00
  XR-2                 PUMP        95.00     0  00:29              1.00
  XR-3                 PUMP         0.00     0  00:00              0.00
  XR-4                 PUMP         0.00     0  00:00              0.00
  
  
  ***************************
  Flow Classification Summary
  ***************************
  
  -------------------------------------------------------------------------------------
                      Adjusted    ---------- Fraction of Time in Flow Class ---------- 
                       /Actual         Up    Down  Sub   Sup   Up    Down  Norm  Inlet 
  Conduit               Length    Dry  Dry   Dry   Crit  Crit  Crit  Crit  Ltd   Ctrl  
  -------------------------------------------------------------------------------------
  1                       1.00   0.00  0.00  0.00  0.00  1.00  0.00  0.00  0.48  0.00
  HS02004478WS02006287    1.00   0.17  0.00  0.00  0.66  0.16  0.00  0.00  0.63  0.00
  HS02004479HS02004480    1.00   0.04  0.00  0.00  0.96  0.00  0.00  0.00  0.12  0.00
  HS02004480HS02004478    1.00   0.13  0.00  0.00  0.60  0.00  0.00  0.27  0.00  0.00
  HS02004770HS02004777    1.00   0.00  0.13  0.00  0.87  0.00  0.00  0.00  0.04  0.00
  HS02004777HS02004785    1.00   0.00  0.00  0.00  1.00  0.00  0.00  0.00  0.14  0.00
  HS02004785HS02004788    1.00   0.00  0.00  0.00  1.00  0.00  0.00  0.00  0.00  0.00
  HS02004788HS02004792    1.00   0.00  0.00  0.00  0.99  0.01  0.00  0.00  0.94  0.00
  HS02004792HS02004799    1.00   0.00  0.00  0.00  0.99  0.01  0.00  0.00  0.92  0.00
  HS02004799HS02004480    1.00   0.00  0.03  0.00  0.83  0.00  0.13  0.00  0.00  0.00
  HS02004802HS02004478    1.00   0.13  0.01  0.00  0.86  0.00  0.00  0.00  0.03  0.00
  HS02004807HS02004802    1.00   0.13  0.00  0.00  0.85  0.00  0.00  0.02  0.00  0.00
  HS02004817HS02004807    1.00   0.00  0.13  0.00  0.87  0.00  0.00  0.00  0.01  0.00
  HS02004817HS02004824    1.00   0.00  0.00  0.00  1.00  0.00  0.00  0.00  0.88  0.00
  HS02004824HS02004830    1.00   0.00  0.00  0.00  1.00  0.00  0.00  0.00  0.01  0.00
  HS02004830HS02004837    1.00   0.00  0.00  0.00  1.00  0.00  0.00  0.00  0.93  0.00
  HS02004837HS02004842    1.00   0.00  0.00  0.00  0.99  0.01  0.00  0.00  0.11  0.00
  HS02004842HS02004848    1.00   0.00  0.13  0.00  0.87  0.00  0.00  0.00  0.61  0.00
  HS02004848HS02004852    1.00   0.13  0.00  0.00  0.87  0.00  0.00  0.00  0.72  0.00
  HS02004852HS02004856    1.00   0.13  0.02  0.00  0.86  0.00  0.00  0.00  0.73  0.00
  HS02004856HS02004862    1.00   0.00  0.19  0.00  0.81  0.00  0.00  0.00  0.76  0.00
  HS02004862HS02004870    1.00   0.00  0.00  0.00  1.00  0.00  0.00  0.00  0.05  0.00
  HS02004870HS02004876    1.00   0.00  0.00  0.00  1.00  0.00  0.00  0.00  0.90  0.00
  HS02004876HS02004881    1.00   0.01  0.00  0.00  0.86  0.13  0.00  0.00  0.00  0.00
  HS02004881HS02006253    1.00   0.03  0.02  0.00  0.21  0.02  0.00  0.73  0.19  0.00
  HS02004901HS02004770    1.00   0.13  0.00  0.00  0.87  0.00  0.00  0.00  0.01  0.00
  WS02001211WS02001212    1.00   0.00  0.02  0.00  0.98  0.00  0.00  0.00  0.00  0.00
  WS02001212WS02001213    1.00   0.02  0.00  0.00  0.24  0.00  0.74  0.00  0.00  0.00
  WS02001213WS02003059    1.00   0.00  0.01  0.00  0.99  0.00  0.00  0.00  0.00  0.00
  WS02003059WS02003060    1.00   0.00  0.00  0.00  1.00  0.00  0.00  0.00  0.03  0.00
  WS02003060WS02003069    1.00   0.00  0.00  0.00  0.97  0.03  0.00  0.00  0.50  0.00
  WS02003066WSF200        1.00   0.06  0.00  0.00  0.00  0.94  0.00  0.00  0.74  0.00
  WS02003067WS02003066    1.00   0.05  0.01  0.00  0.94  0.00  0.00  0.00  0.00  0.00
  WS02003069WS02003072    1.00   0.00  0.00  0.00  0.99  0.01  0.00  0.00  0.71  0.00
  WS02003072WS02003073    1.00   0.00  0.00  0.00  0.00  0.00  0.00  1.00  0.00  0.00
  WS02004138WS02004139    1.00   0.02  0.00  0.00  0.97  0.01  0.00  0.00  0.98  0.00
  WS02004139WS02001211    1.00   0.00  0.01  0.00  0.99  0.00  0.00  0.00  0.00  0.00
  WS02004401WS02004402    1.00   0.00  0.00  0.00  1.00  0.00  0.00  0.00  0.00  0.00
  WS02004402WS02004403    1.00   0.00  0.00  0.00  1.00  0.00  0.00  0.00  0.00  0.00
  WS02004403WS02004404    1.00   0.00  0.00  0.00  1.00  0.00  0.00  0.00  0.00  0.00
  WS02004404WS02004405    1.00   0.00  0.00  0.00  1.00  0.00  0.00  0.00  0.01  0.00
  WS02004405WS02004406    1.00   0.00  0.00  0.00  1.00  0.00  0.00  0.00  0.00  0.00
  WS02004406WS02004407    1.00   0.00  0.01  0.00  0.99  0.00  0.00  0.00  0.01  0.00
  WS02004407WS02004409    1.00   0.01  0.00  0.00  0.98  0.01  0.00  0.00  0.92  0.00
  WS02004409WS02004410    1.00   0.01  0.00  0.00  0.99  0.00  0.00  0.00  0.00  0.00
  WS02004410WS02004411    1.00   0.01  0.00  0.00  0.99  0.00  0.00  0.00  0.01  0.00
  WS02004411WS02004412    1.00   0.01  0.00  0.00  0.99  0.00  0.00  0.00  0.00  0.00
  WS02004412WS02004413    1.00   0.01  0.00  0.00  0.99  0.00  0.00  0.00  0.02  0.00
  WS02004413WS02003067    1.00   0.01  0.04  0.00  0.00  0.00  0.95  0.00  0.00  0.00
  WS02006109WS02006110    1.00   0.00  0.00  0.00  1.00  0.00  0.00  0.00  0.00  0.00
  WS02006110WS02006113    1.00   0.00  0.00  0.00  1.00  0.00  0.00  0.00  0.00  0.00
  WS02006111WS02006112    1.00   0.00  0.00  0.00  1.00  0.00  0.00  0.00  0.84  0.00
  WS02006112WS02006115    1.00   0.00  0.00  0.00  1.00  0.00  0.00  0.00  0.00  0.00
  WS02006113WS02006111    1.00   0.00  0.00  0.00  0.15  0.85  0.00  0.00  0.05  0.00
  WS02006115WS02006116    1.00   0.00  0.00  0.00  1.00  0.00  0.00  0.00  0.00  0.00
  WS02006116WS02004401    1.00   0.00  0.00  0.00  1.00  0.00  0.00  0.00  0.00  0.00
  WS02006228WS02006109    1.00   0.00  0.00  0.00  1.00  0.00  0.00  0.00  0.00  0.00
  WS02006229WS02006228    1.00   0.00  0.00  0.00  1.00  0.00  0.00  0.00  0.00  0.00
  WS02006230WS02006229    1.00   0.00  0.00  0.00  1.00  0.00  0.00  0.00  0.01  0.00
  WS02006231WS02006230    1.00   0.00  0.00  0.00  0.24  0.00  0.76  0.00  0.00  0.00
  WS02006232WS02006231    1.00   0.00  0.00  0.00  0.99  0.00  0.00  0.00  0.01  0.00
  WS02006234WS02006232    1.00   0.00  0.01  0.00  0.99  0.00  0.00  0.00  0.05  0.00
  WS02006235WS02006234    1.00   0.02  0.00  0.00  0.83  0.00  0.15  0.00  0.00  0.00
  WS02006238WS02006235    1.00   0.02  0.00  0.00  0.98  0.00  0.00  0.00  0.00  0.00
  WS02006239WS02006238    1.00   0.02  0.00  0.00  0.98  0.00  0.00  0.00  0.11  0.00
  WS02006240WS02006239    1.00   0.02  0.00  0.00  0.55  0.00  0.00  0.43  0.03  0.00
  WS02006242WS02006240    1.00   0.01  0.00  0.00  0.98  0.00  0.01  0.00  0.00  0.00
  WS02006243WS02006242    1.00   0.01  0.00  0.00  0.98  0.00  0.00  0.01  0.67  0.00
  WS02006245WS02006243    1.00   0.01  0.00  0.00  0.85  0.00  0.00  0.13  0.00  0.00
  WS02006247WS02006245    1.00   0.01  0.00  0.00  0.98  0.00  0.00  0.01  0.00  0.00
  WS02006248WS02006247    1.00   0.01  0.00  0.00  0.98  0.00  0.00  0.01  0.61  0.00
  WS02006249WS02006248    1.00   0.00  0.01  0.00  0.39  0.00  0.60  0.00  0.00  0.00
  WS02006251WS02006249    1.00   0.00  0.00  0.00  1.00  0.00  0.00  0.00  0.58  0.00
  WS02006252WS02006251    1.00   0.01  0.13  0.00  0.14  0.00  0.72  0.00  0.00  0.00
  WS02006253WS02006251    1.00   0.01  0.00  0.00  0.99  0.00  0.00  0.00  0.00  0.00
  WS02006256WS02006235    1.00   0.02  0.00  0.00  0.98  0.00  0.00  0.00  0.00  0.00
  WS02006280WS02006229    1.00   0.14  0.00  0.00  0.09  0.04  0.00  0.73  0.02  0.00
  WS02006284WS02006280    1.00   0.14  0.00  0.00  0.05  0.00  0.00  0.80  0.00  0.00
  WS02006287WS02006284    1.00   0.10  0.07  0.00  0.56  0.26  0.00  0.00  0.69  0.00
  WSF200WS02003060        1.00   0.00  0.06  0.00  0.73  0.21  0.00  0.00  0.71  0.00
  YS02001580YS02001583    1.00   0.25  0.61  0.00  0.14  0.00  0.00  0.00  0.70  0.00
  YS02001583YS02001586    1.00   0.45  0.35  0.00  0.19  0.00  0.00  0.00  0.70  0.00
  YS02001586YS02001590    1.00   0.13  0.00  0.00  0.36  0.05  0.00  0.46  0.35  0.00
  YS02001590YS02001593    1.00   0.13  0.01  0.00  0.06  0.00  0.80  0.00  0.00  0.00
  YS02001593YS02001596    1.00   0.14  0.00  0.00  0.07  0.01  0.00  0.78  0.02  0.00
  YS02001596YS02001600    1.00   0.14  0.00  0.00  0.14  0.02  0.00  0.70  0.06  0.00
  YS02001600YS02001601    1.00   0.13  0.01  0.00  0.86  0.00  0.00  0.00  0.65  0.00
  YS02001601YS02001602    1.00   0.13  0.02  0.00  0.86  0.00  0.00  0.00  0.00  0.00
  YS02001602YS02001605    1.00   0.14  0.00  0.00  0.86  0.00  0.00  0.00  0.00  0.00
  YS02001605YS02001607    1.00   0.14  0.00  0.00  0.86  0.00  0.00  0.00  0.00  0.00
  YS02001607YS02001610    1.00   0.13  0.01  0.00  0.85  0.00  0.00  0.00  0.02  0.00
  YS02001610YS02001613    1.00   0.13  0.00  0.00  0.87  0.00  0.00  0.00  0.02  0.00
  YS02001613YS02001616    1.00   0.13  0.00  0.00  0.87  0.00  0.00  0.00  0.01  0.00
  YS02001616YS02001619    1.00   0.13  0.00  0.00  0.87  0.00  0.00  0.00  0.00  0.00
  YS02001619YS02001622    1.00   0.13  0.00  0.00  0.87  0.00  0.00  0.00  0.31  0.00
  YS02001622YS02001625    1.00   0.13  0.00  0.00  0.87  0.00  0.00  0.00  0.07  0.00
  YS02001625YS02001629    1.00   0.13  0.07  0.00  0.09  0.00  0.71  0.00  0.00  0.00
  YS02001629YS02163301    1.00   0.17  0.01  0.00  0.82  0.00  0.00  0.00  0.00  0.00
  YS02001633YS02163601    1.00   0.00  0.01  0.00  0.99  0.00  0.00  0.00  0.16  0.00
  YS02001641YS02001644    1.00   0.00  0.01  0.00  0.99  0.00  0.00  0.00  0.00  0.00
  YS02001644YS02001647    1.00   0.00  0.20  0.00  0.80  0.00  0.00  0.00  0.00  0.00
  YS02001647YS02001649    1.00   0.00  0.20  0.00  0.47  0.33  0.00  0.00  0.59  0.00
  YS02001649YS02001757    1.00   0.00  0.00  0.00  0.85  0.15  0.00  0.00  0.87  0.00
  YS02001652YS02001649    1.00   0.00  0.00  0.00  0.95  0.05  0.00  0.00  0.80  0.00
  YS02001655YS02001652    1.00   0.00  0.00  0.00  0.11  0.02  0.00  0.87  0.08  0.00
  YS02001658YS02001655    1.00   0.00  0.15  0.00  0.58  0.27  0.00  0.00  0.76  0.00
  YS02001661YS02001658    1.00   0.15  0.00  0.00  0.42  0.43  0.00  0.00  0.75  0.00
  YS02001664YS02001661    1.00   0.13  0.00  0.00  0.78  0.10  0.00  0.00  0.87  0.00
  YS02001745YS02001748    1.00   0.00  0.00  0.00  0.00  0.01  0.00  0.99  0.01  0.00
  YS02001748YS02001751    1.00   0.00  0.00  0.00  0.77  0.23  0.00  0.00  0.85  0.00
  YS02001751YS02001754    1.00   0.00  0.00  0.00  0.06  0.01  0.00  0.93  0.04  0.00
  YS02001754YS02001757    1.00   0.00  0.00  0.00  1.00  0.00  0.00  0.00  0.92  0.00
  YS02001757CaochengTiaoxuchi    1.00   0.00  0.00  0.00  0.16  0.84  0.00  0.00  0.20  0.00
  YS02001759YS02001757    1.00   0.00  0.00  0.00  1.00  0.00  0.00  0.00  0.74  0.00
  YS02001762YS02001759    1.00   0.00  0.00  0.00  1.00  0.00  0.00  0.00  0.08  0.00
  YS02001765YS02001762    1.00   0.00  0.00  0.00  1.00  0.00  0.00  0.00  0.78  0.00
  YS02001767YS02001765    1.00   0.00  0.00  0.00  1.00  0.00  0.00  0.00  0.00  0.00
  YS02001770YS02001767    1.00   0.00  0.00  0.00  1.00  0.00  0.00  0.00  0.00  0.00
  YS02001774YS02001770    1.00   0.00  0.14  0.00  0.68  0.00  0.18  0.00  0.05  0.00
  YS02001779YS02001774    1.00   0.00  0.00  0.00  1.00  0.00  0.00  0.00  0.85  0.00
  YS02001783YS02001784    1.00   0.00  0.21  0.00  0.79  0.00  0.00  0.00  0.57  0.00
  YS02001784YS02001785    1.00   0.00  0.00  0.00  1.00  0.00  0.00  0.00  0.19  0.00
  YS02001786YS02001788    1.00   0.00  0.00  0.00  0.80  0.20  0.00  0.00  0.00  0.00
  YS02001788YS02001790    1.00   0.00  0.00  0.00  0.22  0.78  0.00  0.00  0.87  0.00
  YS02001790YS02001791    1.00   0.00  0.00  0.00  0.01  0.99  0.00  0.00  0.14  0.00
  YS02001791YS02001793    1.00   0.00  0.00  0.00  0.00  1.00  0.00  0.00  0.00  0.00
  YS02001793JiankangQianchi    1.00   0.00  0.00  0.00  0.03  0.96  0.00  0.00  0.06  0.00
  YS02001882YS02001884    1.00   0.17  0.01  0.00  0.82  0.00  0.00  0.00  0.00  0.00
  YS02001884YS02001887    1.00   0.06  0.05  0.00  0.89  0.00  0.00  0.00  0.00  0.00
  YS02001887YS02001890    1.00   0.00  0.00  0.00  0.97  0.00  0.03  0.00  0.00  0.00
  YS02001890YS02001895    1.00   0.00  0.18  0.00  0.81  0.00  0.00  0.00  0.00  0.00
  YS02001895YS02001898    1.00   0.19  0.00  0.00  0.79  0.00  0.02  0.00  0.00  0.00
  YS02001898YS02001901    1.00   0.19  0.01  0.00  0.81  0.00  0.00  0.00  0.01  0.00
  YS02001901YS02001904    1.00   0.18  0.00  0.00  0.82  0.00  0.00  0.00  0.00  0.00
  YS02001904YS02001907    1.00   0.00  0.18  0.00  0.82  0.00  0.00  0.00  0.00  0.00
  YS02001907YS02006553    1.00   0.00  0.02  0.00  0.98  0.00  0.00  0.00  0.00  0.00
  YS02001910YS02001907    1.00   0.00  0.00  0.00  0.97  0.00  0.00  0.03  0.12  0.00
  YS02001915YS02001910    1.00   0.00  0.00  0.00  0.96  0.04  0.00  0.00  0.19  0.00
  YS02001918YS02001915    1.00   0.00  0.00  0.00  0.98  0.02  0.00  0.00  0.80  0.00
  YS02001920YS02001918    1.00   0.00  0.00  0.00  1.00  0.00  0.00  0.00  0.01  0.00
  YS02001923YS02001920    1.00   0.00  0.00  0.00  1.00  0.00  0.00  0.00  0.96  0.00
  YS02001926YS02001923    1.00   0.00  0.07  0.00  0.03  0.00  0.90  0.00  0.00  0.00
  YS02001929YS02001926    1.00   0.00  0.13  0.00  0.87  0.00  0.00  0.00  0.85  0.00
  YS02006553YS02006556    1.00   0.01  0.00  0.00  0.99  0.00  0.00  0.00  0.03  0.00
  YS02006556YS02006558    1.00   0.00  0.00  0.00  1.00  0.00  0.00  0.00  0.00  0.00
  YS02006558YS02006561    1.00   0.20  0.00  0.00  0.02  0.77  0.00  0.00  0.19  0.00
  YS02006561YS02001783    1.00   0.20  0.00  0.00  0.05  0.75  0.00  0.00  0.71  0.00
  YS02163301YS02001633    1.00   0.00  0.17  0.00  0.83  0.00  0.00  0.00  0.00  0.00
  YS02163601YS02164001    1.00   0.00  0.08  0.00  0.92  0.00  0.00  0.00  0.00  0.00
  YS02164001YS02001641    1.00   0.01  0.07  0.00  0.92  0.00  0.00  0.00  0.06  0.00
  YSB1154YSB6556          1.00   0.12  0.00  0.00  0.88  0.00  0.00  0.00  0.02  0.00
  YSB1171HS02004479       1.00   0.04  0.00  0.00  0.95  0.00  0.00  0.01  0.11  0.00
  YSB1174YSB1171          1.00   0.05  0.04  0.00  0.91  0.00  0.00  0.00  0.00  0.00
  YSB6556YSB1171          1.00   0.04  0.08  0.00  0.88  0.00  0.00  0.00  0.00  0.00
  
  
  *************************
  Conduit Surcharge Summary
  *************************
  
  ----------------------------------------------------------------------------
                                                           Hours        Hours 
                         --------- Hours Full --------   Above Full   Capacity
  Conduit                Both Ends  Upstream  Dnstream   Normal Flow   Limited
  ----------------------------------------------------------------------------
  HS02004478WS02006287        0.17      0.17      0.30      0.01         0.01
  HS02004479HS02004480        0.31      0.31      0.32      0.01         0.01
  HS02004480HS02004478        0.25      0.31      0.25      1.23         0.25
  HS02004770HS02004777        0.23      0.23      0.24      0.09         0.07
  HS02004777HS02004785        0.20      0.20      0.24      0.01         0.01
  HS02004785HS02004788        0.18      0.20      0.18      0.89         0.18
  HS02004788HS02004792        0.18      0.18      0.28      0.01         0.01
  HS02004792HS02004799        0.28      0.28      0.37      0.01         0.01
  HS02004799HS02004480        0.31      0.31      0.37      0.43         0.01
  HS02004802HS02004478        0.26      0.26      0.32      0.01         0.01
  HS02004807HS02004802        0.30      0.30      0.31      0.01         0.01
  HS02004817HS02004807        0.30      0.30      0.72      0.01         0.01
  HS02004817HS02004824        0.18      0.18      0.72      0.01         0.01
  HS02004824HS02004830        0.16      0.16      0.18      0.01         0.01
  HS02004830HS02004837        0.12      0.12      0.16      0.01         0.01
  HS02004837HS02004842        0.12      0.12      0.24      0.01         0.01
  HS02004842HS02004848        0.07      0.07      0.24      0.01         0.01
  HS02004848HS02004852        0.07      0.07      0.10      0.04         0.01
  HS02004852HS02004856        0.10      0.10      0.10      0.03         0.01
  HS02004856HS02004862        0.09      0.09      0.10      0.02         0.01
  HS02004862HS02004870        0.10      0.10      0.11      0.02         0.01
  HS02004870HS02004876        0.11      0.11      0.17      0.01         0.01
  HS02004876HS02004881        0.14      0.17      0.14      0.91         0.13
  HS02004881HS02006253        0.14      0.14      1.08      0.01         0.01
  HS02004901HS02004770        0.23      0.23      0.24      0.01         0.01
  WS02003072WS02003073        0.01      0.01      0.01      1.88         0.01
  WS02004401WS02004402        1.19      1.19      1.22      0.94         0.94
  WS02004402WS02004403        1.22      1.22      1.22      1.19         1.18
  WS02004403WS02004404        1.22      1.22      1.31      0.01         0.01
  WS02004404WS02004405        1.30      1.31      1.30      2.82         1.30
  WS02004405WS02004406        1.27      1.30      1.27      1.43         1.27
  WS02004406WS02004407        0.01      0.01      1.27      0.01         0.01
  WS02004407WS02004409        0.01      0.01      0.51      0.01         0.01
  WS02004409WS02004410        0.48      0.51      0.48      1.08         0.48
  WS02004410WS02004411        0.45      0.48      0.45      1.15         0.45
  WS02004411WS02004412        0.38      0.45      0.38      1.18         0.38
  WS02004412WS02004413        0.38      0.38      0.84      0.01         0.01
  WS02004413WS02003067        0.01      0.01      0.84      0.01         0.01
  WS02006109WS02006110        1.41      1.42      1.69      1.43         0.01
  WS02006110WS02006113        0.79      0.79      1.68      0.21         0.01
  WS02006111WS02006112        0.75      0.76      1.79      0.01         0.01
  WS02006112WS02006115        1.10      1.10      1.46      0.01         0.01
  WS02006113WS02006111        0.78      0.79      0.78      0.91         0.78
  WS02006115WS02006116        1.12      1.12      1.12      1.07         1.06
  WS02006116WS02004401        1.19      1.19      1.19      1.16         1.15
  WS02006228WS02006109        1.66      1.69      1.66      1.90         1.66
  WS02006229WS02006228        1.65      1.67      1.65      1.78         1.65
  WS02006230WS02006229        1.71      1.72      1.72      3.29         1.09
  WS02006231WS02006230        1.32      1.32      1.38      2.60         0.56
  WS02006232WS02006231        1.36      1.36      1.49      0.01         0.06
  WS02006234WS02006232        1.39      1.39      1.49      0.01         0.01
  WS02006235WS02006234        1.39      1.39      1.40      2.09         0.53
  WS02006238WS02006235        1.41      1.41      1.44      0.01         0.17
  WS02006239WS02006238        1.40      1.41      1.42      0.41         0.02
  WS02006240WS02006239        1.34      1.35      1.36      0.40         0.01
  WS02006242WS02006240        1.34      1.34      1.38      0.83         0.45
  WS02006243WS02006242        1.31      1.31      1.35      0.01         0.01
  WS02006245WS02006243        1.28      1.28      1.30      0.01         0.01
  WS02006247WS02006245        1.26      1.28      1.26      1.60         0.56
  WS02006248WS02006247        1.23      1.23      1.27      0.01         0.01
  WS02006249WS02006248        1.22      1.22      1.23      0.88         0.01
  WS02006251WS02006249        1.21      1.21      1.23      0.63         0.62
  WS02006252WS02006251        1.07      1.08      1.14      0.01         0.01
  WS02006253WS02006251        1.21      1.21      1.23      0.42         0.01
  WS02006256WS02006235        2.47      2.49      7.28      0.70         0.01
  WS02006280WS02006229        0.40      0.40      0.47      0.01         0.01
  WS02006284WS02006280        0.32      0.32      0.39      0.01         0.01
  WS02006287WS02006284        0.25      0.25      0.33      0.01         0.01
  YS02001580YS02001583        0.17      0.17      0.22      0.01         0.01
  YS02001583YS02001586        0.18      0.18      0.33      0.01         0.01
  YS02001586YS02001590        0.33      0.33      0.39      0.01         0.01
  YS02001590YS02001593        0.39      0.39      0.40      0.41         0.01
  YS02001593YS02001596        0.40      0.40      0.48      0.01         0.01
  YS02001596YS02001600        0.51      0.51      0.59      0.01         0.01
  YS02001600YS02001601        0.64      0.64      0.90      0.01         0.01
  YS02001601YS02001602        0.79      0.79      0.95      0.61         0.01
  YS02001602YS02001605        0.75      0.75      0.79      1.76         0.01
  YS02001605YS02001607        0.70      0.75      0.70      0.86         0.70
  YS02001607YS02001610        0.33      0.33      0.35      0.01         0.01
  YS02001610YS02001613        0.32      0.32      0.35      0.01         0.01
  YS02001613YS02001616        0.28      0.28      0.32      0.01         0.01
  YS02001616YS02001619        0.27      0.27      0.28      0.01         0.01
  YS02001619YS02001622        0.26      0.27      0.26      0.42         0.26
  YS02001622YS02001625        0.26      0.26      0.43      0.01         0.01
  YS02001625YS02001629        0.18      0.18      0.43      0.01         0.01
  YS02001629YS02163301        0.42      0.42      0.42      0.32         0.26
  YS02001633YS02163601        0.44      0.44      0.46      0.34         0.34
  YS02001641YS02001644        0.30      0.35      0.30      1.00         0.30
  YS02001644YS02001647        0.08      0.08      0.30      0.01         0.01
  YS02001647YS02001649        0.08      0.08      0.13      0.01         0.01
  YS02001649YS02001757        0.10      0.13      0.10      0.19         0.09
  YS02001652YS02001649        0.01      0.01      0.13      0.01         0.01
  YS02001655YS02001652        0.01      0.01      0.01      0.01         0.01
  YS02001754YS02001757        0.01      0.01      0.10      0.01         0.01
  YS02001757CaochengTiaoxuchi        0.01      0.10      0.01      0.21         0.01
  YS02001759YS02001757        0.06      0.06      0.10      0.01         0.01
  YS02001762YS02001759        0.04      0.04      0.06      0.01         0.01
  YS02001765YS02001762        0.01      0.01      0.04      0.01         0.01
  YS02001767YS02001765        0.01      0.01      0.01      0.01         0.01
  YS02001770YS02001767        0.01      0.01      0.01      0.30         0.01
  YS02001774YS02001770        0.01      0.01      0.06      0.01         0.01
  YS02001779YS02001774        0.01      0.01      0.06      0.01         0.01
  YS02001783YS02001784        0.23      0.26      0.23      0.37         0.23
  YS02001784YS02001785        0.12      0.23      0.12      0.54         0.12
  YS02001786YS02001788        0.01      0.12      0.01      0.44         0.01
  YS02001790YS02001791        0.01      0.01      0.01      0.22         0.01
  YS02001793JiankangQianchi        0.01      0.01      0.11      0.01         0.01
  YS02001882YS02001884        0.21      0.21      0.22      0.01         0.01
  YS02001884YS02001887        0.24      0.24      0.25      0.01         0.01
  YS02001887YS02001890        0.26      0.26      0.27      0.01         0.01
  YS02001890YS02001895        0.20      0.20      0.29      0.01         0.01
  YS02001895YS02001898        0.19      0.19      0.20      0.01         0.01
  YS02001898YS02001901        0.20      0.20      0.23      0.01         0.01
  YS02001901YS02001904        0.23      0.23      0.23      0.01         0.01
  YS02001904YS02001907        0.23      0.23      0.43      0.01         0.01
  YS02001907YS02006553        0.54      0.54      0.59      0.01         0.01
  YS02001910YS02001907        0.28      0.28      0.42      0.01         0.01
  YS02001915YS02001910        0.20      0.20      0.28      0.01         0.01
  YS02001918YS02001915        0.11      0.11      0.20      0.01         0.01
  YS02001920YS02001918        0.11      0.11      0.13      0.01         0.01
  YS02001923YS02001920        0.04      0.04      0.13      0.01         0.01
  YS02001926YS02001923        0.01      0.01      0.01      0.01         0.01
  YS02001929YS02001926        0.01      0.01      0.01      0.01         0.01
  YS02006553YS02006556        0.35      0.35      0.43      0.01         0.01
  YS02006556YS02006558        0.39      0.39      0.44      0.01         0.01
  YS02006558YS02006561        0.15      0.34      0.15      0.50         0.15
  YS02006561YS02001783        0.06      0.06      0.26      0.01         0.01
  YS02163301YS02001633        0.42      0.42      0.46      0.01         0.01
  YS02163601YS02164001        0.36      0.36      0.46      0.22         0.01
  YS02164001YS02001641        0.35      0.36      0.35      0.51         0.35
  YSB1154YSB6556              0.35      0.35      0.45      0.01         0.01
  YSB1171HS02004479           0.28      0.28      0.45      0.01         0.01
  YSB1174YSB1171              0.40      0.40      0.64      0.01         0.01
  YSB6556YSB1171              0.35      0.35      0.77      0.01         0.01
  
  
  ***************
  Pumping Summary
  ***************
  
  ---------------------------------------------------------------------------------------------------------
                                                  Min       Avg       Max     Total     Power    % Time Off
                        Percent   Number of      Flow      Flow      Flow    Volume     Usage    Pump Curve
  Pump                 Utilized   Start-Ups       LPS       LPS       LPS  10^6 ltr     Kw-hr    Low   High
  ---------------------------------------------------------------------------------------------------------
  CC-R1                   37.50          16      0.00    475.10    683.00     3.867     61.62    0.0  100.0
  CC-R2                   87.50           9      0.00    264.48    683.00     4.107     65.11    0.0  100.0
  CC-S1                   13.54          10      0.00    172.92    200.00     0.682      5.65    0.0   53.8
  CC-S2                   64.58          16      0.00     83.50    200.00     0.909      6.83    0.0   86.2
  JK-R1                   82.29          10      0.00    129.65   1000.00     2.077      5.30    0.0    0.0
  JK-R2                   41.67           9      0.00    162.90   1000.00     1.595      3.49    0.0    0.0
  JK-S                    39.58          10      0.00    102.57    300.00     1.017     22.69    0.0    0.0
  XR-1                    97.91           1      0.00     95.00     95.00     2.679      9.64    0.0    0.0
  XR-2                    93.95           1      0.00     95.00     95.00     2.570      8.80    0.0    0.0
  XR-3                     0.00           0      0.00      0.00      0.00     0.000      0.00    0.0    0.0
  XR-4                     0.00           0      0.00      0.00      0.00     0.000      0.00    0.0    0.0
  

  Analysis begun on:  Thu Jun 15 06:46:27 2023
  Analysis ended on:  Thu Jun 15 06:46:31 2023
  Total elapsed time: 00:00:04