
  OWA STORM WATER MANAGEMENT MODEL - VERSION v5.2.3 (OWA 2023-03-28)
  ------------------------------------------------------------

  WARNING 04: minimum elevation drop used for Conduit WS02004404WS02004405
  WARNING 03: negative offset ignored for Link YS02001904YS02001907
  
  ****************
  Analysis Options
  ****************
  Flow Units ............... LPS
  Process Models:
    Rainfall/Runoff ........ YES
    RDII ................... NO
    Snowmelt ............... NO
    Groundwater ............ NO
    Flow Routing ........... YES
    Ponding Allowed ........ NO
    Water Quality .......... NO
  Infiltration Method ...... HORTON
  Flow Routing Method ...... DYNWAVE
  Surcharge Method ......... EXTRAN
  Starting Date ............ 08/28/2015 08:00:00
  Ending Date .............. 08/28/2015 16:00:00
  Antecedent Dry Days ...... 8.0
  Report Time Step ......... 00:01:00
  Wet Time Step ............ 00:01:00
  Dry Time Step ............ 00:01:00
  Routing Time Step ........ 30.00 sec
  Variable Time Step ....... YES
  Maximum Trials ........... 8
  Number of Threads ........ 1
  Head Tolerance ........... 0.001500 m
  
  
  **************************        Volume         Depth
  Runoff Quantity Continuity     hectare-m            mm
  **************************     ---------       -------
  Total Precipitation ......         3.385        55.886
  Evaporation Loss .........         0.000         0.000
  Infiltration Loss ........         0.238         3.922
  Surface Runoff ...........         3.088        50.968
  Final Storage ............         0.061         1.006
  Continuity Error (%) .....        -0.020
  
  
  **************************        Volume        Volume
  Flow Routing Continuity        hectare-m      10^6 ltr
  **************************     ---------     ---------
  Dry Weather Inflow .......         0.630         6.296
  Wet Weather Inflow .......         3.088        30.883
  Groundwater Inflow .......         0.000         0.000
  RDII Inflow ..............         0.000         0.000
  External Inflow ..........         0.105         1.045
  External Outflow .........         2.959        29.589
  Flooding Loss ............         1.269        12.691
  Evaporation Loss .........         0.000         0.000
  Exfiltration Loss ........         0.000         0.000
  Initial Stored Volume ....         0.303         3.031
  Final Stored Volume ......         0.173         1.732
  Continuity Error (%) .....        -6.681
  
  
  *************************
  Highest Continuity Errors
  *************************
  Node JK-storage (-44.97%)
  Node CC-storage (-7.03%)
  Node YS02001884 (5.15%)
  Node YS02001583 (-3.98%)
  Node HS02004842 (1.75%)
  
  
  ***************************
  Time-Step Critical Elements
  ***************************
  Link WS02006252WS02006251 (74.16%)
  Link YS02001793JiankangQianchi (8.99%)
  Link WS02006280WS02006229 (6.44%)
  Link WS02006238WS02006235 (2.37%)
  Link YS02001791YS02001793 (1.74%)
  
  
  ********************************
  Highest Flow Instability Indexes
  ********************************
  Link WS02006113WS02006111 (24)
  Link WS02006111WS02006112 (17)
  Link WS02004404WS02004405 (13)
  Link WS02006238WS02006235 (13)
  Link WS02006252WS02006251 (11)
  
  
  *********************************
  Most Frequent Nonconverging Nodes
  *********************************
  Node CC-1 (7.19%)
  Node CC-2 (7.19%)
  Node JK-1 (7.19%)
  Node JK-2 (7.19%)
  Node WSC (7.19%)
  
  
  *************************
  Routing Time Step Summary
  *************************
  Minimum Time Step           :     0.00 sec
  Average Time Step           :     1.48 sec
  Maximum Time Step           :    30.00 sec
  % of Time in Steady State   :     0.00
  Average Iterations per Step :     2.81
  % of Steps Not Converging   :     7.19
  Time Step Frequencies       :
     30.000 - 13.228 sec      :     0.01 %
     13.228 -  5.833 sec      :     0.12 %
      5.833 -  2.572 sec      :    13.50 %
      2.572 -  1.134 sec      :    41.04 %
      1.134 -  0.500 sec      :    45.33 %
  
  
  ***************************
  Subcatchment Runoff Summary
  ***************************
  
  ------------------------------------------------------------------------------------------------------------------------------
                            Total      Total      Total      Total     Imperv       Perv      Total       Total     Peak  Runoff
                           Precip      Runon       Evap      Infil     Runoff     Runoff     Runoff      Runoff   Runoff   Coeff
  Subcatchment                 mm         mm         mm         mm         mm         mm         mm    10^6 ltr      LPS
  ------------------------------------------------------------------------------------------------------------------------------
  sub0                      55.89       0.00       0.00       0.98      50.72       2.93      53.65        0.04    32.46   0.960
  sub1                      55.89       0.00       0.00       1.68      48.49       4.47      52.96        0.35   220.77   0.948
  sub10                     55.89       0.00       0.00       1.18      50.13       3.29      53.42        0.59   375.18   0.956
  sub11                     55.89       0.00       0.00       1.16      50.15       3.31      53.46        0.62   415.28   0.957
  sub12                     55.89       0.00       0.00       1.89      47.44       5.38      52.82        0.46   334.61   0.945
  sub14                     55.89       0.00       0.00       1.33      49.60       3.70      53.30        0.51   330.73   0.954
  sub15                     55.89       0.00       0.00       5.23      38.15      11.54      49.69        0.85   516.24   0.889
  sub16                     55.89       0.00       0.00       5.39      36.53      13.05      49.59        0.52   345.15   0.887
  sub17                     55.89       0.00       0.00       5.26      37.08      12.63      49.70        0.43   279.98   0.889
  sub2                      55.89       0.00       0.00       7.46      34.30      13.22      47.52        0.44   226.91   0.850
  sub22                     55.89       0.00       0.00       7.93      31.07      16.11      47.18        2.98  1721.86   0.844
  sub23                     55.89       0.00       0.00       6.46      34.35      14.22      48.57        2.32  1422.14   0.869
  sub3                      55.89       0.00       0.00       8.09      34.26      12.59      46.85        1.05   490.80   0.838
  sub4                      55.89       0.00       0.00       1.88      48.32       4.27      52.59        1.10   542.61   0.941
  sub5                      55.89       0.00       0.00       1.03      50.67       2.88      53.55        0.61   380.09   0.958
  sub60                     55.89       0.00       0.00       1.78      47.97       4.93      52.90        0.70   471.19   0.947
  sub61                     55.89       0.00       0.00       2.58      45.25       6.92      52.17        0.96   654.40   0.934
  sub62                     55.89       0.00       0.00       1.19      50.13       3.29      53.41        1.46   921.15   0.956
  sub63                     55.89       0.00       0.00       4.79      38.71      11.42      50.13        1.14   734.08   0.897
  sub64                     55.89       0.00       0.00       2.42      46.29       5.97      52.26        1.26   753.73   0.935
  sub65                     55.89       0.00       0.00       2.09      47.37       5.17      52.54        1.45   842.22   0.940
  sub66                     55.89       0.00       0.00       5.94      38.60      10.27      48.87        2.28  1103.22   0.875
  sub67                     55.89       0.00       0.00       1.14      50.17       3.33      53.50        1.00   710.95   0.957
  sub68                     55.89       0.00       0.00       2.14      46.87       5.69      52.56        1.45   941.95   0.940
  sub69                     55.89       0.00       0.00       1.91      47.39       6.48      53.87        1.99  1120.19   0.964
  sub7                      55.89       0.00       0.00       1.31      49.61       3.72      53.34        0.18   123.12   0.954
  sub70                     55.89       0.00       0.00       6.38      36.72      12.62      49.34        1.43   619.71   0.883
  sub71                     55.89       0.00       0.00       1.22      50.09       3.25      53.34        1.39   815.41   0.954
  sub72                     55.89       0.00       0.00       1.09      50.57       2.83      53.40        0.73   393.75   0.955
  sub8                      55.89       0.00       0.00       1.32      49.60       3.71      53.31        0.34   225.14   0.954
  sub9                      55.89       0.00       0.00       1.32      49.60       3.71      53.31        0.26   168.12   0.954
  
  
  ******************
  Node Depth Summary
  ******************
  
  ---------------------------------------------------------------------------------
                                 Average  Maximum  Maximum  Time of Max    Reported
                                   Depth    Depth      HGL   Occurrence   Max Depth
  Node                 Type       Meters   Meters   Meters  days hr:min      Meters
  ---------------------------------------------------------------------------------
  HS02004478           JUNCTION     0.19     1.59    10.82     0  02:13        1.57
  HS02004479           JUNCTION     0.26     1.69    10.90     0  02:13        1.69
  HS02004480           JUNCTION     0.22     1.65    10.89     0  02:08        1.63
  HS02004770           JUNCTION     0.23     1.42    11.25     0  02:05        1.42
  HS02004777           JUNCTION     0.26     1.48    11.28     0  02:05        1.48
  HS02004785           JUNCTION     0.16     1.47    11.38     0  02:05        1.42
  HS02004788           JUNCTION     0.13     1.42    11.32     0  02:05        1.42
  HS02004792           JUNCTION     0.17     1.60    11.12     0  02:06        1.60
  HS02004799           JUNCTION     0.28     1.76    10.97     0  02:08        1.76
  HS02004802           JUNCTION     0.28     1.80    10.93     0  02:12        1.79
  HS02004807           JUNCTION     0.26     1.92    11.09     0  02:12        1.92
  HS02004817           JUNCTION     0.55     2.36    11.21     0  02:08        2.35
  HS02004824           JUNCTION     0.14     1.93    11.33     0  02:08        1.93
  HS02004830           JUNCTION     0.14     1.99    11.46     0  02:08        1.99
  HS02004837           JUNCTION     0.12     2.04    11.62     0  02:07        2.04
  HS02004842           JUNCTION     0.41     2.22    11.49     0  02:08        2.22
  HS02004848           JUNCTION     0.10     2.01    11.62     0  02:08        1.92
  HS02004852           JUNCTION     0.10     2.12    11.63     0  02:08        1.99
  HS02004856           JUNCTION     0.16     2.07    11.50     0  02:08        2.07
  HS02004862           JUNCTION     0.11     2.00    11.38     0  02:08        2.00
  HS02004870           JUNCTION     0.11     2.10    11.39     0  02:08        1.86
  HS02004876           JUNCTION     0.15     2.11    11.14     0  02:08        1.88
  HS02004881           JUNCTION     0.09     2.11    11.14     0  02:08        1.64
  HS02004901           JUNCTION     0.24     1.42    11.24     0  02:05        1.42
  WS02001211           JUNCTION     0.62     0.81     5.65     0  02:16        0.81
  WS02001212           JUNCTION     0.36     0.57     5.64     0  02:17        0.57
  WS02001213           JUNCTION     0.58     0.87     5.63     0  02:17        0.87
  WS02003059           JUNCTION     0.64     0.94     5.62     0  02:16        0.94
  WS02003060           JUNCTION     0.37     0.68     5.62     0  02:15        0.68
  WS02003066           JUNCTION     0.22     0.45     6.01     0  02:14        0.45
  WS02003067           JUNCTION     0.53     0.89     6.21     0  02:13        0.89
  WS02003069           JUNCTION     0.41     0.78     5.36     0  02:15        0.78
  WS02003072           JUNCTION     0.47     0.81     5.18     0  02:16        0.81
  WS02003073           JUNCTION     0.28     0.51     4.58     0  02:16        0.51
  WS02004138           JUNCTION     0.13     0.14     7.39     0  00:32        0.14
  WS02004139           JUNCTION     0.56     0.74     5.65     0  02:17        0.74
  WS02004401           JUNCTION     0.73     1.87     7.87     0  02:13        1.87
  WS02004402           JUNCTION     0.76     1.81     7.77     0  02:13        1.81
  WS02004403           JUNCTION     0.77     1.72     7.65     0  02:13        1.71
  WS02004404           JUNCTION     0.84     1.76     7.61     0  02:03        1.76
  WS02004405           JUNCTION     0.83     1.70     7.55     0  02:03        1.70
  WS02004406           JUNCTION     0.82     1.57     7.40     0  02:13        1.57
  WS02004407           JUNCTION     0.25     0.92     7.24     0  02:13        0.92
  WS02004409           JUNCTION     0.50     1.39     7.16     0  02:13        1.38
  WS02004410           JUNCTION     0.51     1.30     7.02     0  02:13        1.30
  WS02004411           JUNCTION     0.52     1.20     6.88     0  02:14        1.20
  WS02004412           JUNCTION     0.53     1.10     6.74     0  02:13        1.10
  WS02004413           JUNCTION     0.67     1.14     6.61     0  02:13        1.14
  WS02006109           JUNCTION     0.90     2.64     9.26     0  01:51        2.64
  WS02006110           JUNCTION     0.85     2.76     9.34     0  01:51        2.76
  WS02006111           JUNCTION     0.36     2.68     9.39     0  01:51        2.68
  WS02006112           JUNCTION     0.93     2.68     8.56     0  00:00        2.68
  WS02006113           JUNCTION     0.44     2.73     9.62     0  01:51        2.73
  WS02006115           JUNCTION     0.64     2.03     8.17     0  01:51        1.98
  WS02006116           JUNCTION     0.72     1.95     7.99     0  02:13        1.95
  WS02006228           JUNCTION     0.93     3.03     9.68     0  02:12        3.03
  WS02006229           JUNCTION     0.93     3.23     9.92     0  02:12        3.22
  WS02006230           JUNCTION     0.86     2.65     9.39     0  02:02        2.65
  WS02006231           JUNCTION     0.60     2.19     9.31     0  02:13        2.19
  WS02006232           JUNCTION     0.70     2.18     9.22     0  02:02        2.18
  WS02006234           JUNCTION     0.59     1.96     9.12     0  02:00        1.96
  WS02006235           JUNCTION     0.60     2.00     9.16     0  03:00        1.97
  WS02006238           JUNCTION     0.63     2.06     9.20     0  03:00        1.95
  WS02006239           JUNCTION     0.57     1.93     9.14     0  03:00        1.80
  WS02006240           JUNCTION     0.53     1.73     9.02     0  03:00        1.63
  WS02006242           JUNCTION     0.57     1.55     8.82     0  01:47        1.55
  WS02006243           JUNCTION     0.46     1.48     8.90     0  01:48        1.37
  WS02006245           JUNCTION     0.45     1.33     8.82     0  03:00        1.29
  WS02006247           JUNCTION     0.47     1.27     8.77     0  03:00        1.24
  WS02006248           JUNCTION     0.41     1.10     8.69     0  01:48        1.10
  WS02006249           JUNCTION     0.44     1.09     8.69     0  01:48        1.09
  WS02006251           JUNCTION     0.50     2.21     9.88     0  02:08        2.11
  WS02006252           JUNCTION     0.36     1.50     9.74     0  02:08        1.50
  WS02006253           JUNCTION     0.56     3.52    11.16     0  01:50        3.52
  WS02006256           JUNCTION     0.89     2.35     9.28     0  00:11        2.35
  WS02006280           JUNCTION     0.24     1.75    10.02     0  02:12        1.73
  WS02006284           JUNCTION     0.51     1.95    10.35     0  02:13        1.95
  WS02006287           JUNCTION     0.25     1.74    10.69     0  02:13        1.73
  WSF200               JUNCTION     0.21     0.52     5.75     0  02:14        0.52
  YS02001580           JUNCTION     0.06     1.05     9.59     0  02:05        0.77
  YS02001583           JUNCTION     0.09     1.14     9.64     0  02:05        0.82
  YS02001586           JUNCTION     0.16     1.13     9.30     0  02:05        1.13
  YS02001590           JUNCTION     0.25     1.39     9.25     0  02:13        1.39
  YS02001593           JUNCTION     0.18     1.32     9.18     0  02:05        1.29
  YS02001596           JUNCTION     0.24     1.68     9.10     0  02:05        1.66
  YS02001600           JUNCTION     0.29     1.87     9.00     0  02:05        1.86
  YS02001601           JUNCTION     0.48     2.06     8.90     0  02:04        2.06
  YS02001602           JUNCTION     0.40     1.87     8.77     0  02:04        1.87
  YS02001605           JUNCTION     0.37     1.78     8.68     0  02:04        1.78
  YS02001607           JUNCTION     0.37     1.67     8.52     0  02:13        1.67
  YS02001610           JUNCTION     0.42     1.68     8.48     0  02:04        1.68
  YS02001613           JUNCTION     0.38     1.68     8.52     0  02:04        1.65
  YS02001616           JUNCTION     0.31     1.61     8.52     0  02:04        1.61
  YS02001619           JUNCTION     0.28     1.61     8.54     0  02:12        1.61
  YS02001622           JUNCTION     0.27     1.59     8.49     0  02:13        1.59
  YS02001625           JUNCTION     0.53     1.78     8.38     0  02:08        1.78
  YS02001629           JUNCTION     0.38     1.85     8.40     0  02:04        1.85
  YS02001633           JUNCTION     0.46     2.08     8.53     0  02:13        2.08
  YS02001641           JUNCTION     0.44     1.96     8.39     0  02:10        1.94
  YS02001644           JUNCTION     0.44     1.92     8.35     0  02:10        1.92
  YS02001647           JUNCTION     0.22     1.81     8.42     0  02:11        1.72
  YS02001649           JUNCTION     0.26     2.05     8.44     0  02:11        1.90
  YS02001652           JUNCTION     0.15     2.07     8.66     0  02:11        1.71
  YS02001655           JUNCTION     0.11     2.11     8.96     0  02:11        1.48
  YS02001658           JUNCTION     0.08     2.30     9.44     0  02:11        1.24
  YS02001661           JUNCTION     0.13     1.51     8.91     0  02:12        1.01
  YS02001664           JUNCTION     0.05     0.58     8.51     0  02:12        0.56
  YS02001745           JUNCTION     0.05     0.78     8.30     0  02:11        0.78
  YS02001748           JUNCTION     0.07     2.19     9.27     0  02:11        1.20
  YS02001751           JUNCTION     0.08     1.91     8.78     0  02:11        1.36
  YS02001754           JUNCTION     0.12     2.07     8.68     0  02:11        1.60
  YS02001757           JUNCTION     0.27     2.09     8.35     0  02:11        1.92
  YS02001759           JUNCTION     0.21     2.04     8.41     0  02:11        1.91
  YS02001762           JUNCTION     0.21     2.08     8.48     0  02:11        1.88
  YS02001765           JUNCTION     0.19     2.04     8.49     0  02:11        1.88
  YS02001767           JUNCTION     0.19     1.99     8.47     0  02:11        1.90
  YS02001770           JUNCTION     0.20     1.95     8.45     0  02:11        1.95
  YS02001774           JUNCTION     0.26     2.01     8.43     0  02:11        1.98
  YS02001779           JUNCTION     0.10     1.68     8.37     0  02:09        1.68
  YS02001783           JUNCTION     0.20     1.50     7.64     0  02:08        1.28
  YS02001784           JUNCTION     0.22     1.25     7.32     0  02:08        1.16
  YS02001786           JUNCTION     0.19     0.94     6.97     0  02:08        0.91
  YS02001788           JUNCTION     0.13     0.62     6.60     0  02:12        0.62
  YS02001790           JUNCTION     0.16     0.73     6.37     0  02:14        0.72
  YS02001791           JUNCTION     0.10     0.44     5.91     0  02:14        0.44
  YS02001793           JUNCTION     0.06     0.25     5.09     0  02:14        0.24
  YS02001882           JUNCTION     0.26     1.65     8.36     0  02:12        1.65
  YS02001884           JUNCTION     0.35     1.76     8.37     0  02:13        1.76
  YS02001887           JUNCTION     0.42     1.83     8.37     0  02:12        1.83
  YS02001890           JUNCTION     0.45     1.81     8.32     0  02:08        1.81
  YS02001895           JUNCTION     0.23     1.57     8.31     0  02:11        1.56
  YS02001898           JUNCTION     0.24     1.57     8.31     0  02:16        1.57
  YS02001901           JUNCTION     0.35     1.70     8.31     0  02:13        1.70
  YS02001904           JUNCTION     0.33     1.64     8.27     0  02:08        1.64
  YS02001907           JUNCTION     0.64     1.96     8.25     0  02:08        1.96
  YS02001910           JUNCTION     0.44     1.96     8.47     0  02:09        1.90
  YS02001915           JUNCTION     0.26     1.91     8.62     0  02:09        1.83
  YS02001918           JUNCTION     0.13     1.81     8.88     0  02:09        1.46
  YS02001920           JUNCTION     0.21     2.14     9.15     0  02:09        1.48
  YS02001923           JUNCTION     0.10     2.03     9.29     0  02:09        1.24
  YS02001926           JUNCTION     0.14     1.90     9.35     0  02:09        1.10
  YS02001929           JUNCTION     0.07     1.78     9.47     0  02:09        0.88
  YS02006553           JUNCTION     0.64     1.99     8.27     0  02:13        1.99
  YS02006556           JUNCTION     0.62     2.00     8.31     0  02:08        2.00
  YS02006558           JUNCTION     0.66     2.10     8.37     0  02:13        2.10
  YS02006561           JUNCTION     0.13     1.25     7.91     0  02:08        0.94
  YS02163301           JUNCTION     0.40     1.96     8.47     0  02:13        1.96
  YS02163601           JUNCTION     0.50     2.07     8.46     0  02:10        2.06
  YS02164001           JUNCTION     0.43     1.98     8.44     0  02:10        1.96
  YSB1154              JUNCTION     0.39     2.03    11.09     0  02:13        2.03
  YSB1171              JUNCTION     0.53     1.95    10.85     0  02:06        1.95
  YSB1174              JUNCTION     0.34     1.86    10.97     0  02:13        1.86
  YSB6556              JUNCTION     0.29     1.78    10.94     0  02:13        1.78
  CC-1                 OUTFALL      0.00     0.00     0.00     0  00:00        0.00
  CC-2                 OUTFALL      0.00     0.00     0.00     0  00:00        0.00
  JK-1                 OUTFALL      0.00     0.00     0.00     0  00:00        0.00
  JK-2                 OUTFALL      0.00     0.00     0.00     0  00:00        0.00
  WSC                  OUTFALL      0.28     0.51     1.18     0  02:17        0.51
  CC-storage           STORAGE      0.39     1.33     6.83     0  02:57        1.33
  JK-storage           STORAGE      0.07     3.00     3.80     0  00:05        3.00
  XR-storage           STORAGE      7.89     9.26     7.26     0  08:00        9.26
  
  
  *******************
  Node Inflow Summary
  *******************
  
  -------------------------------------------------------------------------------------------------
                                  Maximum  Maximum                  Lateral       Total        Flow
                                  Lateral    Total  Time of Max      Inflow      Inflow     Balance
                                   Inflow   Inflow   Occurrence      Volume      Volume       Error
  Node                 Type           LPS      LPS  days hr:min    10^6 ltr    10^6 ltr     Percent
  -------------------------------------------------------------------------------------------------
  HS02004478           JUNCTION      0.00  2305.36     0  02:13           0        7.95      -0.012
  HS02004479           JUNCTION      0.00   427.52     0  02:08           0       0.775       0.094
  HS02004480           JUNCTION      0.00  2096.87     0  02:07           0        5.96       0.039
  HS02004770           JUNCTION   1422.14  1422.14     0  02:14        2.32        2.55       0.106
  HS02004777           JUNCTION      0.03   732.96     0  02:05    0.000864        1.77       0.291
  HS02004785           JUNCTION      0.15   738.31     0  02:05     0.00432        1.76       0.026
  HS02004788           JUNCTION    517.91   868.41     0  02:05       0.903        2.67       0.002
  HS02004792           JUNCTION   1722.14  2510.82     0  02:14        2.99        5.65      -0.000
  HS02004799           JUNCTION    330.73  1734.67     0  02:07       0.508        5.31       0.049
  HS02004802           JUNCTION      0.00  1229.49     0  02:14           0        2.09       0.184
  HS02004807           JUNCTION    415.28  1247.60     0  02:14       0.621        2.13       0.189
  HS02004817           JUNCTION      0.60   836.50     0  02:14      0.0173        1.57       1.050
  HS02004824           JUNCTION    542.66   835.65     0  02:14         1.1        1.75       0.013
  HS02004830           JUNCTION      0.15   618.31     0  02:06     0.00432       0.849       0.125
  HS02004837           JUNCTION    381.53   812.70     0  02:08       0.772        1.18       0.028
  HS02004842           JUNCTION      0.00   841.65     0  02:08           0       0.735       1.780
  HS02004848           JUNCTION    490.80  1091.52     0  02:08        1.05        1.63      -0.015
  HS02004852           JUNCTION      0.00  1033.46     0  02:08           0        1.48       0.001
  HS02004856           JUNCTION    168.12  1099.59     0  02:08       0.256        1.74       0.031
  HS02004862           JUNCTION    227.11  1193.05     0  02:08       0.449        2.18      -0.024
  HS02004870           JUNCTION    225.14  1309.75     0  02:08       0.341        2.52      -0.019
  HS02004876           JUNCTION    220.77  1408.76     0  02:14       0.352        2.87       0.029
  HS02004881           JUNCTION    123.12  1529.75     0  02:14        0.18        3.05       0.011
  HS02004901           JUNCTION    345.15   599.37     0  02:14       0.519       0.789       0.198
  WS02001211           JUNCTION      7.35   204.32     0  03:00       0.212        5.44       0.612
  WS02001212           JUNCTION      0.00   209.30     0  02:59           0        5.41       0.290
  WS02001213           JUNCTION      0.00   212.30     0  02:47           0        5.39       0.332
  WS02003059           JUNCTION      0.00   216.10     0  02:46           0        5.38       0.596
  WS02003060           JUNCTION     16.53  1499.50     0  02:15       0.476        14.2       0.106
  WS02003066           JUNCTION      0.00  1300.11     0  02:14           0        8.33       0.018
  WS02003067           JUNCTION      0.00  1299.25     0  02:14           0        8.34       0.053
  WS02003069           JUNCTION      0.32  1499.61     0  02:15     0.00922        14.1       0.110
  WS02003072           JUNCTION      0.00  1499.66     0  02:16           0        14.1       0.149
  WS02003073           JUNCTION      1.82  1501.70     0  02:16      0.0524        14.2       0.154
  WS02004138           JUNCTION      0.00   190.00     0  00:29           0        5.25       0.054
  WS02004139           JUNCTION      0.32   190.32     0  00:32     0.00924        5.26       0.507
  WS02004401           JUNCTION      0.00  1300.47     0  02:13           0        8.45       0.135
  WS02004402           JUNCTION      0.00  1301.09     0  02:13           0        8.44       0.132
  WS02004403           JUNCTION      0.00  1301.14     0  02:13           0        8.43       0.130
  WS02004404           JUNCTION      0.16  1301.01     0  02:13     0.00467        8.42       0.106
  WS02004405           JUNCTION      0.04  1301.89     0  02:13      0.0011        8.42       0.154
  WS02004406           JUNCTION      0.00  1301.97     0  02:13           0         8.4       0.259
  WS02004407           JUNCTION      0.00  1302.13     0  02:13           0        8.37       0.019
  WS02004409           JUNCTION      0.00  1299.43     0  02:13           0        8.37       0.037
  WS02004410           JUNCTION      0.00  1299.48     0  02:14           0        8.37       0.059
  WS02004411           JUNCTION      0.00  1299.50     0  02:14           0        8.36       0.074
  WS02004412           JUNCTION      0.00  1299.39     0  02:14           0        8.36       0.099
  WS02004413           JUNCTION      0.00  1299.24     0  02:14           0        8.35       0.166
  WS02006109           JUNCTION      1.23  1308.01     0  00:00      0.0354        8.21       0.144
  WS02006110           JUNCTION      0.00  1122.86     0  02:28           0        7.98      -0.440
  WS02006111           JUNCTION      0.00  1176.04     0  00:00           0        8.01      -0.474
  WS02006112           JUNCTION    279.98  2307.30     0  00:00       0.427        8.47      -0.002
  WS02006113           JUNCTION      0.00  1122.72     0  02:28           0        7.97      -0.571
  WS02006115           JUNCTION      0.00  2152.75     0  00:00           0        8.45       0.052
  WS02006116           JUNCTION      0.00  1299.87     0  02:13           0        8.45       0.034
  WS02006228           JUNCTION      0.00  1288.09     0  02:13           0        8.16       0.078
  WS02006229           JUNCTION      0.00  2304.52     0  02:13           0        10.2       0.100
  WS02006230           JUNCTION     10.28  1026.73     0  02:13       0.296        4.27       0.137
  WS02006231           JUNCTION      0.00   453.28     0  02:13           0        3.18      -0.148
  WS02006232           JUNCTION      0.00   453.30     0  02:09           0        3.18       0.159
  WS02006234           JUNCTION      0.00   453.10     0  02:08           0        3.18      -0.069
  WS02006235           JUNCTION      0.00   414.90     0  02:08           0         3.2       0.134
  WS02006238           JUNCTION      0.00   415.60     0  02:30           0        2.88      -0.079
  WS02006239           JUNCTION      0.00   414.95     0  02:30           0        2.88      -0.156
  WS02006240           JUNCTION      0.00   414.70     0  02:31           0        2.88       0.033
  WS02006242           JUNCTION      0.00   414.82     0  02:27           0        2.88       0.076
  WS02006243           JUNCTION      0.00   293.01     0  03:26           0        2.55       0.097
  WS02006245           JUNCTION      0.00   285.95     0  03:26           0        2.56       0.271
  WS02006247           JUNCTION      0.00   301.95     0  01:48           0        2.56       0.053
  WS02006248           JUNCTION      0.00   340.06     0  02:01           0        2.81      -0.012
  WS02006249           JUNCTION      0.00  1349.10     0  02:13           0        5.11       0.124
  WS02006251           JUNCTION      0.08  1561.20     0  02:13     0.00222        5.19       0.020
  WS02006252           JUNCTION      0.00   413.11     0  02:13           0        2.28      -0.394
  WS02006253           JUNCTION     32.46  1560.73     0  02:14      0.0435        3.11      -0.001
  WS02006256           JUNCTION      0.00   300.00     0  01:51           0        1.12       0.008
  WS02006280           JUNCTION      0.00  2303.32     0  02:13           0        7.94       0.008
  WS02006284           JUNCTION      0.10  2303.78     0  02:13     0.00275        7.94       0.005
  WS02006287           JUNCTION      0.00  2303.79     0  02:13           0        7.94       0.009
  WSF200               JUNCTION      0.00  1300.28     0  02:14           0        8.33       0.009
  YS02001580           JUNCTION      0.00    88.43     0  02:05           0     0.00391      -2.383
  YS02001583           JUNCTION      0.00   149.91     0  02:04           0      0.0151      -3.824
  YS02001586           JUNCTION    619.71   619.71     0  02:15        1.43        1.44       0.079
  YS02001590           JUNCTION      0.00   317.99     0  02:13           0         1.2      -0.042
  YS02001593           JUNCTION      0.00   317.94     0  02:23           0         1.2       0.009
  YS02001596           JUNCTION      0.00   317.97     0  02:30           0         1.2      -0.005
  YS02001600           JUNCTION      0.00   317.96     0  02:23           0         1.2       0.010
  YS02001601           JUNCTION   1120.19  1437.68     0  02:14        1.99         3.2       0.018
  YS02001602           JUNCTION      0.00   508.12     0  02:04           0        2.15       0.021
  YS02001605           JUNCTION      0.00   508.36     0  02:04           0        2.07       0.028
  YS02001607           JUNCTION      0.00   508.77     0  02:04           0        2.07       0.095
  YS02001610           JUNCTION      0.00   564.28     0  02:15           0        2.16       0.096
  YS02001613           JUNCTION      0.00   508.72     0  02:04           0        1.83       0.090
  YS02001616           JUNCTION      0.00   508.08     0  02:37           0        1.83       0.027
  YS02001619           JUNCTION   1103.22  1103.22     0  02:15        2.28        4.01       0.001
  YS02001622           JUNCTION      0.00   932.00     0  02:08           0        3.92       0.002
  YS02001625           JUNCTION      0.00  1175.73     0  02:15           0        3.99       0.208
  YS02001629           JUNCTION      0.00   932.38     0  02:08           0        3.43       0.019
  YS02001633           JUNCTION    842.42  1392.30     0  02:08        1.45        4.78       0.070
  YS02001641           JUNCTION      0.00  1393.17     0  02:08           0        4.69       0.058
  YS02001644           JUNCTION    753.77  1811.30     0  02:08        1.26        5.94       0.055
  YS02001647           JUNCTION      0.00  1810.94     0  02:08           0        5.81       0.005
  YS02001649           JUNCTION      0.00  2075.75     0  02:08           0        6.95       0.003
  YS02001652           JUNCTION      0.00   817.30     0  02:13           0        1.14      -0.086
  YS02001655           JUNCTION      0.15   818.29     0  02:13     0.00443        1.14       0.064
  YS02001658           JUNCTION      0.00   819.84     0  02:13           0        1.14      -0.059
  YS02001661           JUNCTION      0.00   815.69     0  02:12           0        1.14       0.025
  YS02001664           JUNCTION    734.08   734.08     0  02:14        1.14        1.14      -0.004
  YS02001745           JUNCTION    471.20   471.20     0  02:13       0.695       0.695       0.164
  YS02001748           JUNCTION      0.04   576.10     0  02:11      0.0013       0.696      -0.243
  YS02001751           JUNCTION      0.01   497.42     0  02:12    0.000317         0.7       0.123
  YS02001754           JUNCTION      0.26   496.98     0  02:12     0.00749       0.711      -0.156
  YS02001757           JUNCTION      0.00  3443.42     0  02:15           0        10.1       0.038
  YS02001759           JUNCTION    654.44  1368.18     0  02:14       0.959         2.4      -0.010
  YS02001762           JUNCTION      0.00   816.64     0  02:16           0        1.44      -0.000
  YS02001765           JUNCTION      0.00   815.37     0  02:16           0        1.44      -0.002
  YS02001767           JUNCTION      0.54   814.03     0  02:16      0.0154        1.44      -0.006
  YS02001770           JUNCTION    921.30   921.30     0  02:14        1.47        1.51      -0.023
  YS02001774           JUNCTION      0.00   298.05     0  02:09           0      0.0985       1.132
  YS02001779           JUNCTION      0.01   298.55     0  02:09    0.000144      0.0574      -0.898
  YS02001783           JUNCTION      0.00  1162.25     0  02:12           0         3.7       0.006
  YS02001784           JUNCTION      1.06  1163.23     0  02:12      0.0305        3.73       0.013
  YS02001786           JUNCTION      0.06  1163.43     0  02:12     0.00162        3.73       0.018
  YS02001788           JUNCTION      0.07  1164.16     0  02:13     0.00204        3.73       0.008
  YS02001790           JUNCTION      0.15  1177.61     0  02:11     0.00446        3.74       0.013
  YS02001791           JUNCTION      0.00  1291.82     0  02:14           0        3.74      -0.015
  YS02001793           JUNCTION      0.00  1247.53     0  02:16           0        3.74       0.003
  YS02001882           JUNCTION      0.00    36.12     0  02:06           0      0.0124       5.078
  YS02001884           JUNCTION      0.00    73.24     0  02:06           0       0.048       5.430
  YS02001887           JUNCTION    711.40   713.05     0  02:13        1.01        1.04       0.431
  YS02001890           JUNCTION      0.00   712.62     0  02:13           0           1       0.509
  YS02001895           JUNCTION      0.00   517.64     0  02:16           0       0.949       0.153
  YS02001898           JUNCTION      0.00   517.64     0  02:16           0       0.947       0.039
  YS02001901           JUNCTION      0.00   518.23     0  02:16           0        0.95       0.337
  YS02001904           JUNCTION      0.00   517.60     0  02:16           0       0.954       0.292
  YS02001907           JUNCTION      0.00  1756.88     0  02:13           0        3.16       0.551
  YS02001910           JUNCTION      0.00  1242.38     0  02:13           0        2.21       0.323
  YS02001915           JUNCTION    815.43  1242.50     0  02:13         1.4        2.25       0.073
  YS02001918           JUNCTION      0.00   437.11     0  02:13           0       0.879      -0.002
  YS02001920           JUNCTION      2.87   436.99     0  02:13      0.0827       0.863       0.118
  YS02001923           JUNCTION      0.04   436.60     0  02:13     0.00109       0.765      -0.051
  YS02001926           JUNCTION      0.05   434.49     0  02:13      0.0015       0.744       0.003
  YS02001929           JUNCTION    393.75   393.75     0  02:15       0.734       0.735      -0.067
  YS02006553           JUNCTION      0.00   798.23     0  02:27           0        2.28       0.516
  YS02006556           JUNCTION      0.00   798.69     0  02:27           0        2.28       0.352
  YS02006558           JUNCTION    942.83  1162.27     0  02:12        1.47        3.73       0.097
  YS02006561           JUNCTION      0.00  1162.05     0  02:12           0         3.7      -0.002
  YS02163301           JUNCTION      0.00   934.30     0  02:08           0        3.43       0.044
  YS02163601           JUNCTION      0.11  1392.58     0  02:08     0.00317        4.69       0.103
  YS02164001           JUNCTION      0.00  1392.54     0  02:08           0        4.68       0.047
  YSB1154              JUNCTION    380.09   380.09     0  02:14       0.607       0.608       0.237
  YSB1171              JUNCTION      0.00   915.88     0  02:14           0        1.14       0.523
  YSB1174              JUNCTION    334.61   334.61     0  02:13       0.462       0.462       0.271
  YSB6556              JUNCTION      0.00   380.11     0  02:14           0       0.608       0.196
  CC-1                 OUTFALL       0.00   683.00     0  00:05           0        6.49       0.000
  CC-2                 OUTFALL       0.00   683.00     0  00:05           0        4.44       0.000
  JK-1                 OUTFALL       0.00  1000.00     0  00:05           0        2.29       0.000
  JK-2                 OUTFALL       0.00  1000.00     0  01:40           0        2.23       0.000
  WSC                  OUTFALL       0.00  1502.55     0  02:17           0        14.1       0.000
  CC-storage           STORAGE       0.00  3442.60     0  02:16           0        12.3      -6.565
  JK-storage           STORAGE       0.00  1287.37     0  02:16           0        3.89     -31.022
  XR-storage           STORAGE     200.00   200.00     0  00:00        5.76        6.36       0.001
  
  
  **********************
  Node Surcharge Summary
  **********************
  
  Surcharging occurs when water rises above the top of the highest conduit.
  ---------------------------------------------------------------------
                                               Max. Height   Min. Depth
                                   Hours       Above Crown    Below Rim
  Node                 Type      Surcharged         Meters       Meters
  ---------------------------------------------------------------------
  HS02004478           JUNCTION        0.42          0.669        0.271
  HS02004479           JUNCTION        0.54          0.891        0.159
  HS02004480           JUNCTION        0.58          0.939        0.161
  HS02004770           JUNCTION        0.49          0.720        0.000
  HS02004777           JUNCTION        0.49          0.780        0.000
  HS02004785           JUNCTION        0.45          0.774        0.016
  HS02004788           JUNCTION        0.43          0.720        0.000
  HS02004792           JUNCTION        0.55          0.900        0.000
  HS02004799           JUNCTION        0.67          1.060        0.000
  HS02004802           JUNCTION        0.59          1.092        0.118
  HS02004807           JUNCTION        0.57          1.220        0.000
  HS02004817           JUNCTION        1.14          1.661        0.079
  HS02004824           JUNCTION        0.43          1.230        0.080
  HS02004830           JUNCTION        0.41          1.288        0.042
  HS02004837           JUNCTION        0.37          1.340        0.000
  HS02004842           JUNCTION        0.50          1.520        0.000
  HS02004848           JUNCTION        0.33          1.314        0.056
  HS02004852           JUNCTION        0.35          1.420        0.000
  HS02004856           JUNCTION        0.33          1.300        0.000
  HS02004862           JUNCTION        0.37          1.300        0.000
  HS02004870           JUNCTION        0.39          1.400        0.000
  HS02004876           JUNCTION        0.44          1.415        0.145
  HS02004881           JUNCTION        0.42          1.412        0.038
  HS02004901           JUNCTION        0.49          0.720        0.000
  WS02004401           JUNCTION        1.47          0.867        0.793
  WS02004402           JUNCTION        1.50          0.814        0.926
  WS02004403           JUNCTION        1.50          0.721        1.309
  WS02004404           JUNCTION        1.62          0.757        2.023
  WS02004405           JUNCTION        1.60          0.696        2.104
  WS02004406           JUNCTION        1.57          0.571        1.879
  WS02004409           JUNCTION        0.97          0.386        1.974
  WS02004410           JUNCTION        0.89          0.299        2.241
  WS02004411           JUNCTION        0.79          0.200        2.330
  WS02004412           JUNCTION        0.70          0.102        2.208
  WS02004413           JUNCTION        1.26          0.143        2.057
  WS02006109           JUNCTION        1.93          1.820        0.000
  WS02006110           JUNCTION        1.75          1.850        0.000
  WS02006111           JUNCTION        1.17          1.870        0.000
  WS02006112           JUNCTION        1.80          1.680        0.000
  WS02006113           JUNCTION        1.22          1.930        0.000
  WS02006115           JUNCTION        1.40          1.023        1.227
  WS02006116           JUNCTION        1.42          0.889        1.401
  WS02006228           JUNCTION        1.93          2.200        0.000
  WS02006229           JUNCTION        0.85          1.047        0.023
  WS02006230           JUNCTION        1.59          1.570        0.000
  WS02006231           JUNCTION        1.63          1.479        0.051
  WS02006232           JUNCTION        1.81          1.480        0.000
  WS02006234           JUNCTION        1.63          1.240        0.000
  WS02006235           JUNCTION        1.64          1.290        0.000
  WS02006238           JUNCTION        1.66          1.341        0.089
  WS02006239           JUNCTION        1.62          1.187        0.103
  WS02006240           JUNCTION        1.62          1.020        0.370
  WS02006242           JUNCTION        1.65          0.820        0.000
  WS02006243           JUNCTION        1.60          0.770        0.000
  WS02006245           JUNCTION        1.57          0.621        0.229
  WS02006247           JUNCTION        1.57          0.559        0.201
  WS02006248           JUNCTION        1.52          0.380        0.000
  WS02006249           JUNCTION        1.54          0.390        0.000
  WS02006251           JUNCTION        1.39          1.180        0.000
  WS02006252           JUNCTION        1.44          1.100        0.000
  WS02006253           JUNCTION        1.40          2.480        0.000
  WS02006256           JUNCTION        7.37          2.050        0.000
  WS02006280           JUNCTION        0.69          0.696        0.084
  WS02006284           JUNCTION        0.61          0.668        0.132
  WS02006287           JUNCTION        0.51          0.739        0.151
  YS02001580           JUNCTION        0.52          0.450        0.000
  YS02001583           JUNCTION        0.53          0.500        0.000
  YS02001586           JUNCTION        0.62          0.510        0.000
  YS02001590           JUNCTION        0.70          0.742        0.008
  YS02001593           JUNCTION        0.70          0.696        0.144
  YS02001596           JUNCTION        0.81          0.949        0.121
  YS02001600           JUNCTION        0.96          1.190        0.000
  YS02001601           JUNCTION        1.32          1.440        0.000
  YS02001602           JUNCTION        1.21          1.270        0.000
  YS02001605           JUNCTION        1.16          1.180        0.000
  YS02001607           JUNCTION        0.63          0.671        0.009
  YS02001610           JUNCTION        0.66          0.680        0.000
  YS02001613           JUNCTION        0.62          0.681        0.019
  YS02001616           JUNCTION        0.58          0.610        0.000
  YS02001619           JUNCTION        0.57          0.610        0.000
  YS02001622           JUNCTION        0.56          0.588        0.032
  YS02001625           JUNCTION        0.75          0.780        0.000
  YS02001629           JUNCTION        0.48          0.470        0.000
  YS02001633           JUNCTION        0.76          1.059        0.001
  YS02001641           JUNCTION        0.65          0.958        0.142
  YS02001644           JUNCTION        0.59          0.920        0.000
  YS02001647           JUNCTION        0.36          0.805        0.095
  YS02001649           JUNCTION        0.41          1.050        0.000
  YS02001652           JUNCTION        0.26          1.038        0.092
  YS02001655           JUNCTION        0.19          1.108        0.092
  YS02001658           JUNCTION        0.12          1.300        0.000
  YS02001661           JUNCTION        0.01          0.436        0.954
  YS02001748           JUNCTION        0.04          1.110        0.080
  YS02001751           JUNCTION        0.14          0.905        0.295
  YS02001754           JUNCTION        0.19          1.023        0.127
  YS02001757           JUNCTION        0.41          1.091        0.119
  YS02001759           JUNCTION        0.35          1.044        0.166
  YS02001762           JUNCTION        0.32          1.076        0.074
  YS02001765           JUNCTION        0.29          1.042        0.058
  YS02001767           JUNCTION        0.27          0.985        0.045
  YS02001770           JUNCTION        0.26          0.920        0.000
  YS02001774           JUNCTION        0.32          1.006        0.044
  YS02001779           JUNCTION        0.21          0.680        0.000
  YS02001783           JUNCTION        0.48          0.700        0.900
  YS02001784           JUNCTION        0.45          0.451        1.039
  YS02001786           JUNCTION        0.35          0.138        1.292
  YS02001882           JUNCTION        0.43          0.649        0.181
  YS02001884           JUNCTION        0.44          0.695        0.175
  YS02001887           JUNCTION        0.47          0.784        0.166
  YS02001890           JUNCTION        0.48          0.760        0.000
  YS02001895           JUNCTION        0.41          0.566        0.184
  YS02001898           JUNCTION        0.41          0.541        0.199
  YS02001901           JUNCTION        0.45          0.699        0.171
  YS02001904           JUNCTION        0.45          0.644        0.206
  YS02001907           JUNCTION        0.69          0.950        0.000
  YS02001910           JUNCTION        0.51          0.965        0.135
  YS02001915           JUNCTION        0.42          0.906        0.094
  YS02001918           JUNCTION        0.34          0.810        0.000
  YS02001920           JUNCTION        0.35          1.140        0.000
  YS02001923           JUNCTION        0.03          0.820        0.000
  YS02001926           JUNCTION        0.06          0.900        0.000
  YS02001929           JUNCTION        0.01          0.780        0.000
  YS02006553           JUNCTION        0.71          0.990        0.200
  YS02006556           JUNCTION        0.60          0.957        0.393
  YS02006558           JUNCTION        0.59          1.002        0.398
  YS02006561           JUNCTION        0.30          0.449        0.701
  YS02163301           JUNCTION        0.74          0.956        0.074
  YS02163601           JUNCTION        0.79          1.066        0.014
  YS02164001           JUNCTION        0.66          0.979        0.121
  YSB1154              JUNCTION        0.78          1.329        0.071
  YSB1171              JUNCTION        0.79          1.100        0.000
  YSB1174              JUNCTION        0.71          1.158        0.092
  YSB6556              JUNCTION        0.64          1.076        0.024
  
  
  *********************
  Node Flooding Summary
  *********************
  
  Flooding refers to all water that overflows a node, whether it ponds or not.
  --------------------------------------------------------------------------
                                                             Total   Maximum
                                 Maximum   Time of Max       Flood    Ponded
                        Hours       Rate    Occurrence      Volume     Depth
  Node                 Flooded       LPS   days hr:min    10^6 ltr    Meters
  --------------------------------------------------------------------------
  HS02004770              0.32    895.05      0  02:14       0.511     0.000
  HS02004777              0.01     21.02      0  02:06       0.000     0.000
  HS02004788              0.01    272.17      0  02:05       0.001     0.000
  HS02004792              0.32   1368.57      0  02:14       0.846     0.000
  HS02004799              0.15    208.47      0  02:13       0.058     0.000
  HS02004807              0.03     22.02      0  02:14       0.001     0.000
  HS02004837              0.01     87.86      0  02:07       0.000     0.000
  HS02004842              0.01     34.15      0  02:08       0.000     0.000
  HS02004852              0.01     73.31      0  02:08       0.000     0.000
  HS02004856              0.01    378.92      0  02:08       0.002     0.000
  HS02004862              0.01    348.57      0  02:08       0.001     0.000
  HS02004870              0.01    283.76      0  02:08       0.000     0.000
  HS02004901              0.38    599.33      0  02:14       0.558     0.000
  WS02006109              0.36    271.09      0  02:13       0.204     0.000
  WS02006110              0.01     21.09      0  01:51       0.000     0.000
  WS02006111              0.01     12.54      0  01:51       0.000     0.000
  WS02006112              0.01   1153.65      0  00:00       0.035     0.000
  WS02006113              0.01     30.57      0  01:51       0.000     0.000
  WS02006228              0.01      0.33      0  02:13       0.000     0.000
  WS02006230              0.62    573.79      0  02:13       0.820     0.000
  WS02006232              0.15      0.63      0  02:23       0.000     0.000
  WS02006234              0.67    128.59      0  02:11       0.223     0.000
  WS02006235              0.01     12.42      0  03:00       0.000     0.000
  WS02006242              0.79    137.19      0  02:26       0.335     0.000
  WS02006243              0.01     80.25      0  01:48       0.000     0.000
  WS02006248              1.15    339.95      0  02:01       1.168     0.000
  WS02006249              1.37   1288.15      0  02:13       3.216     0.000
  WS02006251              0.01     49.00      0  02:08       0.000     0.000
  WS02006252              0.26    412.77      0  02:13       0.215     0.000
  WS02006253              0.01    150.14      0  01:50       0.000     0.000
  WS02006256              0.92    283.70      0  02:25       0.551     0.000
  YS02001580              0.01     66.72      0  02:05       0.000     0.000
  YS02001583              0.01     57.97      0  02:05       0.000     0.000
  YS02001586              0.40    302.06      0  02:15       0.222     0.000
  YS02001600              0.01      1.00      0  02:05       0.000     0.000
  YS02001601              0.55   1039.81      0  02:14       1.050     0.000
  YS02001602              0.40     61.90      0  02:24       0.079     0.000
  YS02001605              0.01      3.31      0  02:04       0.000     0.000
  YS02001610              0.34    564.06      0  02:15       0.424     0.000
  YS02001616              0.01      7.05      0  02:04       0.000     0.000
  YS02001619              0.01      0.40      0  02:13       0.000     0.000
  YS02001625              0.28   1175.32      0  02:15       0.647     0.000
  YS02001629              0.08    163.86      0  02:12       0.026     0.000
  YS02001644              0.10    569.23      0  02:13       0.122     0.000
  YS02001658              0.01    263.82      0  02:11       0.000     0.000
  YS02001770              0.01      7.32      0  02:11       0.000     0.000
  YS02001779              0.09    242.95      0  02:09       0.041     0.000
  YS02001890              0.13    199.13      0  02:13       0.047     0.000
  YS02001907              0.29   1540.38      0  02:13       0.874     0.000
  YS02001918              0.01    105.52      0  02:09       0.001     0.000
  YS02001920              0.01     57.91      0  02:09       0.000     0.000
  YS02001923              0.01    147.93      0  02:09       0.000     0.000
  YS02001926              0.01     70.17      0  02:09       0.000     0.000
  YS02001929              0.01    298.25      0  02:09       0.001     0.000
  YSB1171                 0.23    915.61      0  02:14       0.422     0.000
  
  
  **********************
  Storage Volume Summary
  **********************
  
  ------------------------------------------------------------------------------------------------
                         Average    Avg   Evap  Exfil     Maximum    Max    Time of Max    Maximum
                          Volume   Pcnt   Pcnt   Pcnt      Volume   Pcnt     Occurrence    Outflow
  Storage Unit           1000 m   Full   Loss   Loss     1000 m   Full    days hr:min        LPS
  ------------------------------------------------------------------------------------------------
  CC-storage               1.077   16.8    0.0    0.0       3.696   57.7       0  02:57    1566.00
  JK-storage               0.004    1.2    0.0    0.0       0.151   51.7       0  00:05    2300.00
  XR-storage               0.946   65.7    0.0    0.0       1.111   77.1       0  08:00     190.00
  
  
  ***********************
  Outfall Loading Summary
  ***********************
  
  -----------------------------------------------------------
                         Flow       Avg       Max       Total
                         Freq      Flow      Flow      Volume
  Outfall Node           Pcnt       LPS       LPS    10^6 ltr
  -----------------------------------------------------------
  CC-1                  53.84    603.86    683.00       6.492
  CC-2                  74.90    324.03    683.00       4.438
  JK-1                  78.14    123.18   1000.00       2.290
  JK-2                  44.23    209.84   1000.00       2.234
  WSC                   99.99    572.75   1502.55      14.135
  -----------------------------------------------------------
  System                70.22   1833.66   3853.04      29.589
  
  
  ********************
  Link Flow Summary
  ********************
  
  -----------------------------------------------------------------------------
                                 Maximum  Time of Max   Maximum    Max/    Max/
                                  |Flow|   Occurrence   |Veloc|    Full    Full
  Link                 Type          LPS  days hr:min     m/sec    Flow   Depth
  -----------------------------------------------------------------------------
  1                    CONDUIT   1502.55     0  02:17      3.70    0.52    0.51
  HS02004478WS02006287 CONDUIT   2303.79     0  02:13      2.58    0.64    1.00
  HS02004479HS02004480 CONDUIT    427.81     0  02:08      0.61    0.41    1.00
  HS02004480HS02004478 CONDUIT   2094.19     0  02:07      2.99    8.82    1.00
  HS02004770HS02004777 CONDUIT    732.93     0  02:05      1.05    1.34    1.00
  HS02004777HS02004785 CONDUIT    738.16     0  02:05      1.11    0.91    1.00
  HS02004785HS02004788 CONDUIT    652.84     0  02:05      1.35    4.92    1.00
  HS02004788HS02004792 CONDUIT    812.68     0  02:28      1.44    0.54    1.00
  HS02004792HS02004799 CONDUIT   1572.96     0  02:07      2.25    0.96    1.00
  HS02004799HS02004480 CONDUIT   1733.13     0  02:07      2.48    2.19    1.00
  HS02004802HS02004478 CONDUIT   1229.59     0  02:14      1.76    1.08    1.00
  HS02004807HS02004802 CONDUIT   1229.49     0  02:14      1.76    2.35    1.00
  HS02004817HS02004807 CONDUIT    836.31     0  02:14      1.19    0.50    1.00
  HS02004817HS02004824 CONDUIT    835.90     0  02:14      1.19    0.38    1.00
  HS02004824HS02004830 CONDUIT    618.16     0  02:06      0.88    0.81    1.00
  HS02004830HS02004837 CONDUIT    628.20     0  02:06      0.99    0.63    1.00
  HS02004837HS02004842 CONDUIT    841.65     0  02:08      1.20    0.50    1.00
  HS02004842HS02004848 CONDUIT    846.64     0  02:08      1.33    0.49    1.00
  HS02004848HS02004852 CONDUIT   1033.46     0  02:08      1.61    1.17    1.00
  HS02004852HS02004856 CONDUIT   1000.03     0  02:08      1.48    1.14    1.00
  HS02004856HS02004862 CONDUIT   1067.41     0  02:08      1.71    1.06    1.00
  HS02004862HS02004870 CONDUIT   1178.79     0  02:08      1.92    1.27    1.00
  HS02004870HS02004876 CONDUIT   1188.23     0  02:14      1.78    0.79    1.00
  HS02004876HS02004881 CONDUIT   1408.67     0  02:14      2.38   14.98    1.00
  HS02004881HS02006253 CONDUIT   1530.13     0  02:14      2.55    0.30    1.00
  HS02004901HS02004770 CONDUIT    265.78     0  02:24      0.38    1.00    1.00
  WS02001211WS02001212 CONDUIT    209.30     0  02:59      0.54    0.16    0.69
  WS02001212WS02001213 CONDUIT    212.30     0  02:47      1.03    0.33    0.56
  WS02001213WS02003059 CONDUIT    216.10     0  02:46      0.47    0.36    0.89
  WS02003059WS02003060 CONDUIT    220.95     0  02:47      0.66    0.14    0.81
  WS02003060WS02003069 CONDUIT   1499.29     0  02:15      2.08    0.59    0.61
  WS02003066WSF200     CONDUIT   1300.28     0  02:14      3.25    0.22    0.38
  WS02003067WS02003066 CONDUIT   1300.11     0  02:14      2.00    0.42    0.56
  WS02003069WS02003072 CONDUIT   1499.66     0  02:16      1.89    0.72    0.66
  WS02003072WS02003073 CONDUIT   1499.88     0  02:16      2.05    3.24    0.62
  WS02004138WS02004139 CONDUIT    190.00     0  00:32      2.17    0.04    0.41
  WS02004139WS02001211 CONDUIT    196.97     0  03:00      0.55    0.25    0.61
  WS02004401WS02004402 CONDUIT   1301.09     0  02:13      2.07    1.56    1.00
  WS02004402WS02004403 CONDUIT   1301.14     0  02:13      1.84    1.87    1.00
  WS02004403WS02004404 CONDUIT   1300.85     0  02:13      1.68    0.94    1.00
  WS02004404WS02004405 CONDUIT   1301.85     0  02:13      1.86   12.75    1.00
  WS02004405WS02004406 CONDUIT   1301.97     0  02:13      1.80    2.57    1.00
  WS02004406WS02004407 CONDUIT   1302.13     0  02:13      1.79    0.58    0.96
  WS02004407WS02004409 CONDUIT   1299.43     0  02:13      1.85    0.46    0.96
  WS02004409WS02004410 CONDUIT   1299.48     0  02:14      1.65    1.68    1.00
  WS02004410WS02004411 CONDUIT   1299.50     0  02:14      1.65    1.77    1.00
  WS02004411WS02004412 CONDUIT   1299.39     0  02:14      1.65    1.85    1.00
  WS02004412WS02004413 CONDUIT   1299.24     0  02:14      1.65    0.87    1.00
  WS02004413WS02003067 CONDUIT   1299.25     0  02:14      2.01    0.56    0.77
  WS02006109WS02006110 CONDUIT   1306.78     0  00:00      3.15    2.51    1.00
  WS02006110WS02006113 CONDUIT   1122.72     0  02:28      2.23    1.02    1.00
  WS02006111WS02006112 CONDUIT   2307.30     0  00:00      9.18    1.10    1.00
  WS02006112WS02006115 CONDUIT   2152.75     0  00:00      2.85    1.27    1.00
  WS02006113WS02006111 CONDUIT   1176.04     0  00:00      2.59    1.41    1.00
  WS02006115WS02006116 CONDUIT   1299.87     0  02:13      1.81    1.67    1.00
  WS02006116WS02004401 CONDUIT   1300.47     0  02:13      2.21    1.79    1.00
  WS02006228WS02006109 CONDUIT   1287.87     0  02:13      2.56    5.63    1.00
  WS02006229WS02006228 CONDUIT   1288.09     0  02:13      2.56    4.27    1.00
  WS02006230WS02006229 CONDUIT   1016.46     0  02:13      2.64   22.62    1.00
  WS02006231WS02006230 CONDUIT    453.28     0  02:13      1.29    6.88    1.00
  WS02006232WS02006231 CONDUIT    453.30     0  02:09      1.18    0.95    1.00
  WS02006234WS02006232 CONDUIT    453.10     0  02:08      1.18    0.92    1.00
  WS02006235WS02006234 CONDUIT    414.73     0  02:15      1.08    4.38    1.00
  WS02006238WS02006235 CONDUIT    415.60     0  02:30      1.23    0.93    1.00
  WS02006239WS02006238 CONDUIT    414.95     0  02:30      1.08    1.33    1.00
  WS02006240WS02006239 CONDUIT    414.70     0  02:31      1.09    1.30    1.00
  WS02006242WS02006240 CONDUIT    414.82     0  02:27      1.08    1.65    1.00
  WS02006243WS02006242 CONDUIT    305.93     0  03:25      1.14    0.65    1.00
  WS02006245WS02006243 CONDUIT    293.01     0  03:26      1.22    0.87    1.00
  WS02006247WS02006245 CONDUIT    285.95     0  03:26      1.17    2.27    1.00
  WS02006248WS02006247 CONDUIT    301.95     0  01:48      1.17    0.66    1.00
  WS02006249WS02006248 CONDUIT    312.95     0  01:47      1.15    1.71    1.00
  WS02006251WS02006249 CONDUIT   1349.10     0  02:13      3.51    3.89    1.00
  WS02006252WS02006251 CONDUIT   1298.45     0  00:05     20.66    4.77    1.00
  WS02006253WS02006251 CONDUIT   1561.12     0  02:13      4.06    4.68    1.00
  WS02006256WS02006235 CONDUIT    206.67     0  04:15      2.92    2.19    1.00
  WS02006280WS02006229 CONDUIT   2304.52     0  02:13      4.19    0.49    1.00
  WS02006284WS02006280 CONDUIT   2303.32     0  02:13      2.96    0.96    1.00
  WS02006287WS02006284 CONDUIT   2303.68     0  02:13      2.93    1.07    1.00
  WSF200WS02003060     CONDUIT   1300.72     0  02:14      2.30    0.29    0.50
  YS02001580YS02001583 CONDUIT     88.43     0  02:05      0.61    0.34    1.00
  YS02001583YS02001586 CONDUIT    149.91     0  02:04      0.63    0.23    1.00
  YS02001586YS02001590 CONDUIT    317.99     0  02:13      1.25    0.56    1.00
  YS02001590YS02001593 CONDUIT    317.94     0  02:23      1.12    2.00    1.00
  YS02001593YS02001596 CONDUIT    317.97     0  02:30      1.76    0.50    1.00
  YS02001596YS02001600 CONDUIT    317.96     0  02:23      1.24    0.62    1.00
  YS02001600YS02001601 CONDUIT    318.08     0  02:13      1.12    0.55    1.00
  YS02001601YS02001602 CONDUIT    508.12     0  02:04      1.80    1.84    1.00
  YS02001602YS02001605 CONDUIT    508.36     0  02:04      1.80   10.76    1.00
  YS02001605YS02001607 CONDUIT    508.77     0  02:04      1.80    2.79    1.00
  YS02001607YS02001610 CONDUIT    509.04     0  02:04      0.65    0.48    1.00
  YS02001610YS02001613 CONDUIT    508.72     0  02:04      0.65    0.59    1.00
  YS02001613YS02001616 CONDUIT    508.08     0  02:37      0.65    0.44    1.00
  YS02001616YS02001619 CONDUIT    508.65     0  02:37      0.67    0.88    1.00
  YS02001619YS02001622 CONDUIT    932.00     0  02:08      1.19    1.37    1.00
  YS02001622YS02001625 CONDUIT    932.11     0  02:08      1.19    0.50    1.00
  YS02001625YS02001629 CONDUIT    932.38     0  02:08      1.19    0.44    1.00
  YS02001629YS02163301 CONDUIT    934.30     0  02:08      1.19    1.15    1.00
  YS02001633YS02163601 CONDUIT   1392.47     0  02:08      1.77    1.46    1.00
  YS02001641YS02001644 CONDUIT   1392.89     0  02:08      1.77    4.50    1.00
  YS02001644YS02001647 CONDUIT   1810.94     0  02:08      2.31    1.06    1.00
  YS02001647YS02001649 CONDUIT   1820.11     0  02:08      2.34    0.96    1.00
  YS02001649YS02001757 CONDUIT   2063.51     0  02:08      2.64    1.25    1.00
  YS02001652YS02001649 CONDUIT    817.63     0  02:13      1.04    0.41    1.00
  YS02001655YS02001652 CONDUIT    817.30     0  02:13      1.25    0.40    1.00
  YS02001658YS02001655 CONDUIT    818.14     0  02:13      1.87    0.35    1.00
  YS02001661YS02001658 CONDUIT    819.84     0  02:13      2.33    0.32    1.00
  YS02001664YS02001661 CONDUIT    815.69     0  02:12      2.34    0.26    0.79
  YS02001745YS02001748 CONDUIT    576.05     0  02:11      2.20    0.22    0.89
  YS02001748YS02001751 CONDUIT    497.41     0  02:12      1.71    0.25    1.00
  YS02001751YS02001754 CONDUIT    496.72     0  02:12      1.34    0.24    1.00
  YS02001754YS02001757 CONDUIT    496.82     0  02:12      0.63    0.20    1.00
  YS02001757CaochengTiaoxuchi CONDUIT   3442.60     0  02:16      6.31    1.49    1.00
  YS02001759YS02001757 CONDUIT   1368.32     0  02:14      1.74    0.97    1.00
  YS02001762YS02001759 CONDUIT    817.23     0  02:16      1.04    0.94    1.00
  YS02001765YS02001762 CONDUIT    816.64     0  02:16      1.04    0.77    1.00
  YS02001767YS02001765 CONDUIT    815.37     0  02:16      1.04    1.03    1.00
  YS02001770YS02001767 CONDUIT    813.49     0  02:16      1.04    3.22    1.00
  YS02001774YS02001770 CONDUIT    298.05     0  02:09      0.38    0.19    1.00
  YS02001779YS02001774 CONDUIT    298.54     0  02:09      0.39    0.15    1.00
  YS02001783YS02001784 CONDUIT   1162.17     0  02:12      2.31    1.60    1.00
  YS02001784YS02001785 CONDUIT   1163.38     0  02:12      2.31    2.71    1.00
  YS02001786YS02001788 CONDUIT   1164.09     0  02:13      2.49    2.24    0.89
  YS02001788YS02001790 CONDUIT   1177.46     0  02:11      2.73    0.87    0.84
  YS02001790YS02001791 CONDUIT   1291.82     0  02:14      3.43    1.41    0.70
  YS02001791YS02001793 CONDUIT   1247.53     0  02:16      6.77    0.54    0.43
  YS02001793JiankangQianchi CONDUIT   1287.37     0  02:16     24.51    0.10    0.61
  YS02001882YS02001884 CONDUIT     36.12     0  02:06      0.11    0.04    1.00
  YS02001884YS02001887 CONDUIT     73.24     0  02:06      0.09    0.10    1.00
  YS02001887YS02001890 CONDUIT    712.62     0  02:13      0.91    1.22    1.00
  YS02001890YS02001895 CONDUIT    517.64     0  02:16      0.66    0.24    1.00
  YS02001895YS02001898 CONDUIT    517.64     0  02:16      0.66    0.90    1.00
  YS02001898YS02001901 CONDUIT    518.23     0  02:16      0.66    0.33    1.00
  YS02001901YS02001904 CONDUIT    517.60     0  02:16      0.66    0.80    1.00
  YS02001904YS02001907 CONDUIT    518.52     0  02:16      0.66    0.18    1.00
  YS02001907YS02006553 CONDUIT    798.23     0  02:27      0.89    0.94    1.00
  YS02001910YS02001907 CONDUIT   1242.61     0  02:13      1.58    0.70    1.00
  YS02001915YS02001910 CONDUIT   1242.38     0  02:13      1.58    0.62    1.00
  YS02001918YS02001915 CONDUIT    437.04     0  02:13      0.56    0.24    1.00
  YS02001920YS02001918 CONDUIT    437.11     0  02:13      0.65    0.42    1.00
  YS02001923YS02001920 CONDUIT    434.12     0  02:13      0.69    0.19    1.00
  YS02001926YS02001923 CONDUIT    436.57     0  02:13      0.96    0.62    1.00
  YS02001929YS02001926 CONDUIT    434.44     0  02:13      1.11    0.21    1.00
  YS02006553YS02006556 CONDUIT    798.69     0  02:27      1.02    0.68    1.00
  YS02006556YS02006558 CONDUIT    799.73     0  02:27      1.02    0.63    1.00
  YS02006558YS02006561 CONDUIT   1162.05     0  02:12      4.11    2.57    1.00
  YS02006561YS02001783 CONDUIT   1162.25     0  02:12      2.31    0.60    1.00
  YS02163301YS02001633 CONDUIT    934.50     0  02:08      1.19    0.88    1.00
  YS02163601YS02164001 CONDUIT   1392.54     0  02:08      1.77    1.23    1.00
  YS02164001YS02001641 CONDUIT   1393.17     0  02:08      1.77    1.90    1.00
  YSB1154YSB6556       CONDUIT    380.11     0  02:14      0.99    0.68    1.00
  YSB1171HS02004479    CONDUIT    427.52     0  02:08      0.85    0.28    1.00
  YSB1174YSB1171       CONDUIT    334.63     0  02:13      0.87    0.51    1.00
  YSB6556YSB1171       CONDUIT    380.69     0  02:14      0.99    0.39    1.00
  CC-R1                PUMP       683.00     0  00:05              1.00
  CC-R2                PUMP       683.00     0  00:05              1.00
  CC-S1                PUMP       200.00     0  01:35              1.00
  CC-S2                PUMP       200.00     0  00:05              1.00
  JK-R1                PUMP      1000.00     0  00:05              1.00
  JK-R2                PUMP      1000.00     0  01:40              1.00
  JK-S                 PUMP       300.00     0  01:51              1.00
  XR-1                 PUMP        95.00     0  00:10              1.00
  XR-2                 PUMP        95.00     0  00:29              1.00
  XR-3                 PUMP         0.00     0  00:00              0.00
  XR-4                 PUMP         0.00     0  00:00              0.00
  
  
  ***************************
  Flow Classification Summary
  ***************************
  
  -------------------------------------------------------------------------------------
                      Adjusted    ---------- Fraction of Time in Flow Class ---------- 
                       /Actual         Up    Down  Sub   Sup   Up    Down  Norm  Inlet 
  Conduit               Length    Dry  Dry   Dry   Crit  Crit  Crit  Crit  Ltd   Ctrl  
  -------------------------------------------------------------------------------------
  1                       1.00   0.00  0.00  0.00  0.00  1.00  0.00  0.00  0.47  0.00
  HS02004478WS02006287    1.00   0.16  0.00  0.00  0.66  0.17  0.00  0.00  0.60  0.00
  HS02004479HS02004480    1.00   0.04  0.00  0.00  0.96  0.00  0.00  0.00  0.11  0.00
  HS02004480HS02004478    1.00   0.13  0.00  0.00  0.61  0.00  0.00  0.26  0.00  0.00
  HS02004770HS02004777    1.00   0.00  0.13  0.00  0.87  0.00  0.00  0.00  0.03  0.00
  HS02004777HS02004785    1.00   0.00  0.00  0.00  1.00  0.00  0.00  0.00  0.12  0.00
  HS02004785HS02004788    1.00   0.00  0.00  0.00  1.00  0.00  0.00  0.00  0.00  0.00
  HS02004788HS02004792    1.00   0.00  0.00  0.00  0.99  0.01  0.00  0.00  0.91  0.00
  HS02004792HS02004799    1.00   0.00  0.00  0.00  0.99  0.01  0.00  0.00  0.87  0.00
  HS02004799HS02004480    1.00   0.00  0.03  0.00  0.84  0.00  0.12  0.00  0.00  0.00
  HS02004802HS02004478    1.00   0.13  0.01  0.00  0.86  0.00  0.00  0.00  0.03  0.00
  HS02004807HS02004802    1.00   0.13  0.00  0.00  0.85  0.00  0.00  0.02  0.00  0.00
  HS02004817HS02004807    1.00   0.00  0.13  0.00  0.87  0.00  0.00  0.00  0.01  0.00
  HS02004817HS02004824    1.00   0.00  0.00  0.00  1.00  0.00  0.00  0.00  0.83  0.00
  HS02004824HS02004830    1.00   0.00  0.00  0.00  1.00  0.00  0.00  0.00  0.01  0.00
  HS02004830HS02004837    1.00   0.00  0.00  0.00  1.00  0.00  0.00  0.00  0.89  0.00
  HS02004837HS02004842    1.00   0.00  0.00  0.00  0.99  0.01  0.00  0.00  0.11  0.00
  HS02004842HS02004848    1.00   0.00  0.13  0.00  0.87  0.00  0.00  0.00  0.56  0.00
  HS02004848HS02004852    1.00   0.13  0.00  0.00  0.87  0.00  0.00  0.00  0.70  0.00
  HS02004852HS02004856    1.00   0.13  0.01  0.00  0.86  0.00  0.00  0.00  0.68  0.00
  HS02004856HS02004862    1.00   0.00  0.17  0.00  0.83  0.00  0.00  0.00  0.74  0.00
  HS02004862HS02004870    1.00   0.00  0.00  0.00  1.00  0.00  0.00  0.00  0.04  0.00
  HS02004870HS02004876    1.00   0.00  0.00  0.00  1.00  0.00  0.00  0.00  0.87  0.00
  HS02004876HS02004881    1.00   0.01  0.00  0.00  0.85  0.14  0.00  0.00  0.00  0.00
  HS02004881HS02006253    1.00   0.03  0.02  0.00  0.32  0.01  0.00  0.62  0.26  0.00
  HS02004901HS02004770    1.00   0.13  0.00  0.00  0.87  0.00  0.00  0.00  0.00  0.00
  WS02001211WS02001212    1.00   0.00  0.02  0.00  0.98  0.00  0.00  0.00  0.00  0.00
  WS02001212WS02001213    1.00   0.02  0.00  0.00  0.34  0.00  0.63  0.00  0.00  0.00
  WS02001213WS02003059    1.00   0.00  0.01  0.00  0.99  0.00  0.00  0.00  0.00  0.00
  WS02003059WS02003060    1.00   0.00  0.00  0.00  1.00  0.00  0.00  0.00  0.03  0.00
  WS02003060WS02003069    1.00   0.00  0.00  0.00  0.97  0.03  0.00  0.00  0.44  0.00
  WS02003066WSF200        1.00   0.06  0.00  0.00  0.00  0.94  0.00  0.00  0.70  0.00
  WS02003067WS02003066    1.00   0.05  0.01  0.00  0.94  0.00  0.00  0.00  0.00  0.00
  WS02003069WS02003072    1.00   0.00  0.00  0.00  0.99  0.01  0.00  0.00  0.62  0.00
  WS02003072WS02003073    1.00   0.00  0.00  0.00  0.00  0.00  0.00  1.00  0.00  0.00
  WS02004138WS02004139    1.00   0.02  0.00  0.00  0.97  0.01  0.00  0.00  0.98  0.00
  WS02004139WS02001211    1.00   0.00  0.01  0.00  0.99  0.00  0.00  0.00  0.00  0.00
  WS02004401WS02004402    1.00   0.00  0.00  0.00  1.00  0.00  0.00  0.00  0.00  0.00
  WS02004402WS02004403    1.00   0.00  0.00  0.00  1.00  0.00  0.00  0.00  0.00  0.00
  WS02004403WS02004404    1.00   0.00  0.00  0.00  1.00  0.00  0.00  0.00  0.00  0.00
  WS02004404WS02004405    1.00   0.00  0.00  0.00  1.00  0.00  0.00  0.00  0.01  0.00
  WS02004405WS02004406    1.00   0.00  0.00  0.00  1.00  0.00  0.00  0.00  0.00  0.00
  WS02004406WS02004407    1.00   0.00  0.01  0.00  0.99  0.00  0.00  0.00  0.01  0.00
  WS02004407WS02004409    1.00   0.01  0.00  0.00  0.98  0.01  0.00  0.00  0.87  0.00
  WS02004409WS02004410    1.00   0.01  0.00  0.00  0.99  0.00  0.00  0.00  0.00  0.00
  WS02004410WS02004411    1.00   0.01  0.00  0.00  0.99  0.00  0.00  0.00  0.01  0.00
  WS02004411WS02004412    1.00   0.01  0.00  0.00  0.99  0.00  0.00  0.00  0.00  0.00
  WS02004412WS02004413    1.00   0.01  0.00  0.00  0.99  0.00  0.00  0.00  0.02  0.00
  WS02004413WS02003067    1.00   0.01  0.04  0.00  0.00  0.00  0.95  0.00  0.00  0.00
  WS02006109WS02006110    1.00   0.00  0.00  0.00  1.00  0.00  0.00  0.00  0.00  0.00
  WS02006110WS02006113    1.00   0.00  0.00  0.00  1.00  0.00  0.00  0.00  0.00  0.00
  WS02006111WS02006112    1.00   0.00  0.00  0.00  1.00  0.00  0.00  0.00  0.80  0.00
  WS02006112WS02006115    1.00   0.00  0.00  0.00  1.00  0.00  0.00  0.00  0.00  0.00
  WS02006113WS02006111    1.00   0.00  0.00  0.00  0.18  0.82  0.00  0.00  0.06  0.00
  WS02006115WS02006116    1.00   0.00  0.00  0.00  1.00  0.00  0.00  0.00  0.00  0.00
  WS02006116WS02004401    1.00   0.00  0.00  0.00  1.00  0.00  0.00  0.00  0.00  0.00
  WS02006228WS02006109    1.00   0.00  0.00  0.00  1.00  0.00  0.00  0.00  0.00  0.00
  WS02006229WS02006228    1.00   0.00  0.00  0.00  1.00  0.00  0.00  0.00  0.00  0.00
  WS02006230WS02006229    1.00   0.00  0.00  0.00  1.00  0.00  0.00  0.00  0.00  0.00
  WS02006231WS02006230    1.00   0.00  0.00  0.00  0.29  0.00  0.71  0.00  0.00  0.00
  WS02006232WS02006231    1.00   0.00  0.00  0.00  0.99  0.00  0.00  0.00  0.01  0.00
  WS02006234WS02006232    1.00   0.00  0.01  0.00  0.99  0.00  0.00  0.00  0.04  0.00
  WS02006235WS02006234    1.00   0.02  0.00  0.00  0.89  0.00  0.09  0.00  0.00  0.00
  WS02006238WS02006235    1.00   0.02  0.00  0.00  0.98  0.00  0.00  0.00  0.00  0.00
  WS02006239WS02006238    1.00   0.02  0.00  0.00  0.98  0.00  0.00  0.00  0.08  0.00
  WS02006240WS02006239    1.00   0.02  0.00  0.00  0.56  0.00  0.00  0.42  0.03  0.00
  WS02006242WS02006240    1.00   0.01  0.00  0.00  0.98  0.00  0.01  0.00  0.00  0.00
  WS02006243WS02006242    1.00   0.01  0.00  0.00  0.98  0.00  0.00  0.01  0.59  0.00
  WS02006245WS02006243    1.00   0.01  0.00  0.00  0.90  0.00  0.00  0.09  0.01  0.00
  WS02006247WS02006245    1.00   0.01  0.00  0.00  0.98  0.00  0.00  0.01  0.00  0.00
  WS02006248WS02006247    1.00   0.01  0.00  0.00  0.98  0.00  0.00  0.01  0.56  0.00
  WS02006249WS02006248    1.00   0.00  0.01  0.00  0.44  0.00  0.55  0.00  0.00  0.00
  WS02006251WS02006249    1.00   0.00  0.00  0.00  1.00  0.00  0.00  0.00  0.53  0.00
  WS02006252WS02006251    1.00   0.01  0.06  0.00  0.18  0.00  0.74  0.00  0.00  0.00
  WS02006253WS02006251    1.00   0.01  0.00  0.00  0.99  0.00  0.00  0.00  0.00  0.00
  WS02006256WS02006235    1.00   0.02  0.00  0.00  0.98  0.00  0.00  0.00  0.00  0.00
  WS02006280WS02006229    1.00   0.14  0.00  0.00  0.14  0.03  0.00  0.69  0.01  0.00
  WS02006284WS02006280    1.00   0.14  0.00  0.00  0.09  0.01  0.00  0.76  0.00  0.00
  WS02006287WS02006284    1.00   0.10  0.06  0.00  0.56  0.27  0.00  0.00  0.66  0.00
  WSF200WS02003060        1.00   0.00  0.06  0.00  0.69  0.25  0.00  0.00  0.60  0.00
  YS02001580YS02001583    1.00   0.26  0.56  0.00  0.18  0.00  0.00  0.00  0.66  0.00
  YS02001583YS02001586    1.00   0.42  0.35  0.00  0.23  0.00  0.00  0.00  0.66  0.00
  YS02001586YS02001590    1.00   0.13  0.00  0.00  0.43  0.04  0.00  0.41  0.38  0.00
  YS02001590YS02001593    1.00   0.13  0.01  0.00  0.10  0.00  0.76  0.00  0.00  0.00
  YS02001593YS02001596    1.00   0.14  0.00  0.00  0.12  0.01  0.00  0.74  0.02  0.00
  YS02001596YS02001600    1.00   0.14  0.00  0.00  0.19  0.01  0.00  0.66  0.05  0.00
  YS02001600YS02001601    1.00   0.13  0.01  0.00  0.86  0.00  0.00  0.00  0.61  0.00
  YS02001601YS02001602    1.00   0.13  0.01  0.00  0.86  0.00  0.00  0.00  0.00  0.00
  YS02001602YS02001605    1.00   0.14  0.00  0.00  0.86  0.00  0.00  0.00  0.00  0.00
  YS02001605YS02001607    1.00   0.14  0.00  0.00  0.86  0.00  0.00  0.00  0.00  0.00
  YS02001607YS02001610    1.00   0.13  0.01  0.00  0.86  0.00  0.00  0.00  0.02  0.00
  YS02001610YS02001613    1.00   0.13  0.00  0.00  0.87  0.00  0.00  0.00  0.01  0.00
  YS02001613YS02001616    1.00   0.13  0.00  0.00  0.87  0.00  0.00  0.00  0.01  0.00
  YS02001616YS02001619    1.00   0.13  0.00  0.00  0.87  0.00  0.00  0.00  0.00  0.00
  YS02001619YS02001622    1.00   0.13  0.00  0.00  0.87  0.00  0.00  0.00  0.29  0.00
  YS02001622YS02001625    1.00   0.13  0.00  0.00  0.87  0.00  0.00  0.00  0.05  0.00
  YS02001625YS02001629    1.00   0.13  0.05  0.00  0.15  0.00  0.67  0.00  0.00  0.00
  YS02001629YS02163301    1.00   0.16  0.01  0.00  0.83  0.00  0.00  0.00  0.00  0.00
  YS02001633YS02163601    1.00   0.00  0.01  0.00  0.99  0.00  0.00  0.00  0.15  0.00
  YS02001641YS02001644    1.00   0.00  0.01  0.00  0.99  0.00  0.00  0.00  0.00  0.00
  YS02001644YS02001647    1.00   0.00  0.18  0.00  0.82  0.00  0.00  0.00  0.00  0.00
  YS02001647YS02001649    1.00   0.00  0.18  0.00  0.57  0.25  0.00  0.00  0.56  0.00
  YS02001649YS02001757    1.00   0.00  0.00  0.00  0.90  0.10  0.00  0.00  0.76  0.00
  YS02001652YS02001649    1.00   0.00  0.00  0.00  0.96  0.04  0.00  0.00  0.74  0.00
  YS02001655YS02001652    1.00   0.00  0.00  0.00  0.18  0.01  0.00  0.81  0.09  0.00
  YS02001658YS02001655    1.00   0.00  0.14  0.00  0.62  0.24  0.00  0.00  0.73  0.00
  YS02001661YS02001658    1.00   0.14  0.00  0.00  0.45  0.41  0.00  0.00  0.71  0.00
  YS02001664YS02001661    1.00   0.13  0.00  0.00  0.74  0.13  0.00  0.00  0.86  0.00
  YS02001745YS02001748    1.00   0.00  0.00  0.00  0.03  0.01  0.00  0.95  0.03  0.00
  YS02001748YS02001751    1.00   0.00  0.00  0.00  0.77  0.23  0.00  0.00  0.81  0.00
  YS02001751YS02001754    1.00   0.00  0.00  0.00  0.16  0.01  0.00  0.83  0.08  0.00
  YS02001754YS02001757    1.00   0.00  0.00  0.00  1.00  0.00  0.00  0.00  0.81  0.00
  YS02001757CaochengTiaoxuchi    1.00   0.00  0.00  0.00  0.29  0.71  0.00  0.00  0.15  0.00
  YS02001759YS02001757    1.00   0.00  0.00  0.00  1.00  0.00  0.00  0.00  0.71  0.00
  YS02001762YS02001759    1.00   0.00  0.00  0.00  1.00  0.00  0.00  0.00  0.05  0.00
  YS02001765YS02001762    1.00   0.00  0.00  0.00  1.00  0.00  0.00  0.00  0.72  0.00
  YS02001767YS02001765    1.00   0.00  0.00  0.00  1.00  0.00  0.00  0.00  0.00  0.00
  YS02001770YS02001767    1.00   0.00  0.00  0.00  1.00  0.00  0.00  0.00  0.00  0.00
  YS02001774YS02001770    1.00   0.00  0.13  0.00  0.70  0.00  0.17  0.00  0.03  0.00
  YS02001779YS02001774    1.00   0.00  0.00  0.00  1.00  0.00  0.00  0.00  0.77  0.00
  YS02001783YS02001784    1.00   0.00  0.19  0.00  0.81  0.00  0.00  0.00  0.55  0.00
  YS02001784YS02001785    1.00   0.00  0.00  0.00  1.00  0.00  0.00  0.00  0.17  0.00
  YS02001786YS02001788    1.00   0.00  0.00  0.00  0.79  0.21  0.00  0.00  0.00  0.00
  YS02001788YS02001790    1.00   0.00  0.00  0.00  0.22  0.78  0.00  0.00  0.81  0.00
  YS02001790YS02001791    1.00   0.00  0.00  0.00  0.01  0.99  0.00  0.00  0.16  0.00
  YS02001791YS02001793    1.00   0.00  0.00  0.00  0.00  1.00  0.00  0.00  0.01  0.00
  YS02001793JiankangQianchi    1.00   0.00  0.00  0.00  0.04  0.96  0.00  0.00  0.09  0.00
  YS02001882YS02001884    1.00   0.15  0.01  0.00  0.84  0.00  0.00  0.00  0.00  0.00
  YS02001884YS02001887    1.00   0.06  0.05  0.00  0.89  0.00  0.00  0.00  0.00  0.00
  YS02001887YS02001890    1.00   0.00  0.00  0.00  0.97  0.00  0.03  0.00  0.00  0.00
  YS02001890YS02001895    1.00   0.00  0.17  0.00  0.83  0.00  0.00  0.00  0.00  0.00
  YS02001895YS02001898    1.00   0.17  0.00  0.00  0.81  0.00  0.02  0.00  0.00  0.00
  YS02001898YS02001901    1.00   0.17  0.00  0.00  0.83  0.00  0.00  0.00  0.01  0.00
  YS02001901YS02001904    1.00   0.17  0.00  0.00  0.83  0.00  0.00  0.00  0.00  0.00
  YS02001904YS02001907    1.00   0.00  0.17  0.00  0.83  0.00  0.00  0.00  0.00  0.00
  YS02001907YS02006553    1.00   0.00  0.02  0.00  0.98  0.00  0.00  0.00  0.00  0.00
  YS02001910YS02001907    1.00   0.00  0.00  0.00  0.97  0.00  0.00  0.03  0.12  0.00
  YS02001915YS02001910    1.00   0.00  0.00  0.00  0.96  0.04  0.00  0.00  0.17  0.00
  YS02001918YS02001915    1.00   0.00  0.00  0.00  0.98  0.02  0.00  0.00  0.76  0.00
  YS02001920YS02001918    1.00   0.00  0.00  0.00  1.00  0.00  0.00  0.00  0.01  0.00
  YS02001923YS02001920    1.00   0.00  0.00  0.00  1.00  0.00  0.00  0.00  0.93  0.00
  YS02001926YS02001923    1.00   0.00  0.07  0.00  0.05  0.00  0.87  0.00  0.00  0.00
  YS02001929YS02001926    1.00   0.00  0.13  0.00  0.87  0.00  0.00  0.00  0.83  0.00
  YS02006553YS02006556    1.00   0.01  0.00  0.00  0.99  0.00  0.00  0.00  0.03  0.00
  YS02006556YS02006558    1.00   0.00  0.00  0.00  1.00  0.00  0.00  0.00  0.00  0.00
  YS02006558YS02006561    1.00   0.18  0.00  0.00  0.05  0.77  0.00  0.00  0.19  0.00
  YS02006561YS02001783    1.00   0.18  0.00  0.00  0.08  0.74  0.00  0.00  0.69  0.00
  YS02163301YS02001633    1.00   0.00  0.16  0.00  0.84  0.00  0.00  0.00  0.00  0.00
  YS02163601YS02164001    1.00   0.00  0.08  0.00  0.92  0.00  0.00  0.00  0.00  0.00
  YS02164001YS02001641    1.00   0.01  0.07  0.00  0.92  0.00  0.00  0.00  0.06  0.00
  YSB1154YSB6556          1.00   0.12  0.00  0.00  0.88  0.00  0.00  0.00  0.02  0.00
  YSB1171HS02004479       1.00   0.04  0.00  0.00  0.95  0.00  0.00  0.01  0.10  0.00
  YSB1174YSB1171          1.00   0.05  0.04  0.00  0.91  0.00  0.00  0.00  0.00  0.00
  YSB6556YSB1171          1.00   0.04  0.08  0.00  0.88  0.00  0.00  0.00  0.00  0.00
  
  
  *************************
  Conduit Surcharge Summary
  *************************
  
  ----------------------------------------------------------------------------
                                                           Hours        Hours 
                         --------- Hours Full --------   Above Full   Capacity
  Conduit                Both Ends  Upstream  Dnstream   Normal Flow   Limited
  ----------------------------------------------------------------------------
  HS02004478WS02006287        0.42      0.42      0.58      0.01         0.01
  HS02004479HS02004480        0.58      0.58      0.61      0.01         0.01
  HS02004480HS02004478        0.52      0.58      0.52      1.59         0.52
  HS02004770HS02004777        0.49      0.49      0.49      0.10         0.06
  HS02004777HS02004785        0.45      0.45      0.49      0.01         0.01
  HS02004785HS02004788        0.43      0.45      0.43      1.33         0.40
  HS02004788HS02004792        0.43      0.43      0.55      0.01         0.01
  HS02004792HS02004799        0.55      0.55      0.67      0.01         0.01
  HS02004799HS02004480        0.58      0.58      0.67      0.76         0.01
  HS02004802HS02004478        0.53      0.53      0.60      0.06         0.01
  HS02004807HS02004802        0.57      0.57      0.59      0.21         0.22
  HS02004817HS02004807        0.57      0.57      1.14      0.01         0.01
  HS02004817HS02004824        0.43      0.43      1.14      0.01         0.01
  HS02004824HS02004830        0.41      0.41      0.43      0.01         0.01
  HS02004830HS02004837        0.37      0.37      0.41      0.01         0.01
  HS02004837HS02004842        0.37      0.37      0.50      0.01         0.01
  HS02004842HS02004848        0.33      0.33      0.50      0.01         0.01
  HS02004848HS02004852        0.33      0.33      0.35      0.03         0.01
  HS02004852HS02004856        0.35      0.35      0.37      0.02         0.01
  HS02004856HS02004862        0.33      0.33      0.37      0.01         0.01
  HS02004862HS02004870        0.37      0.37      0.39      0.14         0.12
  HS02004870HS02004876        0.39      0.39      0.44      0.01         0.01
  HS02004876HS02004881        0.42      0.44      0.42      1.36         0.42
  HS02004881HS02006253        0.42      0.42      1.40      0.01         0.01
  HS02004901HS02004770        0.49      0.49      0.49      0.01         0.01
  WS02003072WS02003073        0.01      0.01      0.01      2.70         0.01
  WS02004401WS02004402        1.47      1.47      1.50      1.31         1.30
  WS02004402WS02004403        1.50      1.50      1.50      1.47         1.46
  WS02004403WS02004404        1.50      1.50      1.62      0.01         0.01
  WS02004404WS02004405        1.60      1.62      1.60      3.26         1.60
  WS02004405WS02004406        1.57      1.60      1.57      1.76         1.57
  WS02004406WS02004407        0.01      0.01      1.57      0.01         0.01
  WS02004407WS02004409        0.01      0.01      0.97      0.01         0.01
  WS02004409WS02004410        0.89      0.97      0.89      1.39         0.89
  WS02004410WS02004411        0.79      0.89      0.79      1.44         0.79
  WS02004411WS02004412        0.70      0.79      0.70      1.47         0.70
  WS02004412WS02004413        0.70      0.70      1.25      0.01         0.01
  WS02004413WS02003067        0.01      0.01      1.25      0.01         0.01
  WS02006109WS02006110        1.74      1.75      1.99      1.75         0.01
  WS02006110WS02006113        1.22      1.22      1.97      0.27         0.01
  WS02006111WS02006112        1.16      1.17      2.48      0.01         0.01
  WS02006112WS02006115        1.40      1.40      1.79      0.01         0.01
  WS02006113WS02006111        1.19      1.22      1.19      1.30         1.19
  WS02006115WS02006116        1.41      1.41      1.42      1.39         1.37
  WS02006116WS02004401        1.47      1.47      1.47      1.45         1.44
  WS02006228WS02006109        1.93      1.99      1.93      2.79         1.93
  WS02006229WS02006228        1.93      1.94      1.93      2.24         1.93
  WS02006230WS02006229        2.04      2.09      2.05      3.86         1.02
  WS02006231WS02006230        1.59      1.59      1.64      3.02         0.93
  WS02006232WS02006231        1.63      1.63      1.81      0.01         0.13
  WS02006234WS02006232        1.64      1.64      1.81      0.01         0.01
  WS02006235WS02006234        1.63      1.63      1.64      2.69         0.89
  WS02006238WS02006235        1.66      1.66      1.69      0.01         0.33
  WS02006239WS02006238        1.66      1.66      1.66      0.73         0.03
  WS02006240WS02006239        1.62      1.63      1.62      0.73         0.01
  WS02006242WS02006240        1.62      1.62      1.67      1.17         0.80
  WS02006243WS02006242        1.61      1.61      1.65      0.01         0.01
  WS02006245WS02006243        1.58      1.58      1.60      0.01         0.01
  WS02006247WS02006245        1.57      1.58      1.57      2.61         0.44
  WS02006248WS02006247        1.53      1.53      1.57      0.01         0.01
  WS02006249WS02006248        1.52      1.52      1.54      1.44         0.01
  WS02006251WS02006249        1.51      1.51      1.54      1.11         1.10
  WS02006252WS02006251        1.39      1.39      1.44      0.01         0.01
  WS02006253WS02006251        1.50      1.51      1.52      0.71         0.01
  WS02006256WS02006235        3.03      3.04      7.36      0.68         0.01
  WS02006280WS02006229        0.71      0.71      0.85      0.01         0.01
  WS02006284WS02006280        0.61      0.61      0.69      0.01         0.01
  WS02006287WS02006284        0.51      0.51      0.62      0.25         0.24
  YS02001580YS02001583        0.52      0.52      0.55      0.01         0.01
  YS02001583YS02001586        0.53      0.53      0.62      0.01         0.01
  YS02001586YS02001590        0.63      0.63      0.70      0.01         0.01
  YS02001590YS02001593        0.70      0.70      0.71      0.74         0.01
  YS02001593YS02001596        0.71      0.71      0.81      0.01         0.01
  YS02001596YS02001600        0.86      0.86      0.96      0.01         0.01
  YS02001600YS02001601        1.03      1.03      1.32      0.01         0.01
  YS02001601YS02001602        1.21      1.21      1.36      0.99         0.01
  YS02001602YS02001605        1.16      1.16      1.21      2.21         0.01
  YS02001605YS02001607        1.11      1.16      1.11      1.28         1.11
  YS02001607YS02001610        0.63      0.63      0.66      0.01         0.01
  YS02001610YS02001613        0.62      0.62      0.66      0.01         0.01
  YS02001613YS02001616        0.58      0.58      0.62      0.01         0.01
  YS02001616YS02001619        0.57      0.57      0.58      0.01         0.01
  YS02001619YS02001622        0.56      0.57      0.56      0.74         0.55
  YS02001622YS02001625        0.56      0.56      0.75      0.01         0.01
  YS02001625YS02001629        0.48      0.48      0.75      0.01         0.01
  YS02001629YS02163301        0.73      0.73      0.74      0.34         0.34
  YS02001633YS02163601        0.76      0.76      0.79      0.46         0.47
  YS02001641YS02001644        0.59      0.65      0.59      1.40         0.58
  YS02001644YS02001647        0.36      0.36      0.59      0.05         0.01
  YS02001647YS02001649        0.36      0.36      0.41      0.01         0.01
  YS02001649YS02001757        0.41      0.41      0.41      0.40         0.33
  YS02001652YS02001649        0.28      0.28      0.41      0.01         0.01
  YS02001655YS02001652        0.19      0.19      0.26      0.01         0.01
  YS02001658YS02001655        0.11      0.11      0.19      0.01         0.01
  YS02001661YS02001658        0.01      0.01      0.12      0.01         0.01
  YS02001664YS02001661        0.01      0.01      0.02      0.01         0.01
  YS02001745YS02001748        0.01      0.01      0.04      0.01         0.01
  YS02001748YS02001751        0.09      0.09      0.14      0.01         0.01
  YS02001751YS02001754        0.14      0.14      0.19      0.01         0.01
  YS02001754YS02001757        0.21      0.21      0.41      0.01         0.01
  YS02001757CaochengTiaoxuchi        0.11      0.41      1.04      0.42         0.06
  YS02001759YS02001757        0.35      0.35      0.41      0.01         0.03
  YS02001762YS02001759        0.32      0.32      0.35      0.01         0.03
  YS02001765YS02001762        0.28      0.29      0.32      0.01         0.01
  YS02001767YS02001765        0.27      0.27      0.29      0.01         0.05
  YS02001770YS02001767        0.27      0.27      0.27      0.51         0.27
  YS02001774YS02001770        0.26      0.26      0.32      0.01         0.01
  YS02001779YS02001774        0.21      0.21      0.32      0.01         0.01
  YS02001783YS02001784        0.45      0.48      0.45      0.63         0.45
  YS02001784YS02001785        0.35      0.45      0.35      0.85         0.35
  YS02001786YS02001788        0.01      0.35      0.01      0.73         0.01
  YS02001790YS02001791        0.01      0.01      0.01      0.44         0.01
  YS02001793JiankangQianchi        0.01      0.01      0.21      0.01         0.01
  YS02001882YS02001884        0.43      0.43      0.44      0.01         0.01
  YS02001884YS02001887        0.46      0.46      0.47      0.01         0.01
  YS02001887YS02001890        0.48      0.48      0.49      0.08         0.01
  YS02001890YS02001895        0.41      0.41      0.51      0.01         0.01
  YS02001895YS02001898        0.41      0.41      0.41      0.01         0.01
  YS02001898YS02001901        0.42      0.42      0.45      0.01         0.01
  YS02001901YS02001904        0.45      0.45      0.45      0.01         0.01
  YS02001904YS02001907        0.45      0.45      0.71      0.01         0.01
  YS02001907YS02006553        0.86      0.86      0.92      0.01         0.01
  YS02001910YS02001907        0.51      0.51      0.69      0.01         0.01
  YS02001915YS02001910        0.42      0.42      0.51      0.01         0.01
  YS02001918YS02001915        0.34      0.34      0.42      0.01         0.01
  YS02001920YS02001918        0.34      0.34      0.35      0.01         0.01
  YS02001923YS02001920        0.30      0.30      0.35      0.01         0.01
  YS02001926YS02001923        0.03      0.03      0.06      0.01         0.01
  YS02001929YS02001926        0.01      0.01      0.06      0.01         0.01
  YS02006553YS02006556        0.60      0.60      0.71      0.01         0.01
  YS02006556YS02006558        0.65      0.65      0.72      0.01         0.01
  YS02006558YS02006561        0.37      0.59      0.37      0.80         0.37
  YS02006561YS02001783        0.30      0.30      0.48      0.01         0.01
  YS02163301YS02001633        0.74      0.74      0.78      0.01         0.01
  YS02163601YS02164001        0.66      0.66      0.79      0.28         0.01
  YS02164001YS02001641        0.65      0.66      0.65      0.72         0.52
  YSB1154YSB6556              0.64      0.64      0.78      0.01         0.01
  YSB1171HS02004479           0.54      0.54      0.79      0.01         0.01
  YSB1174YSB1171              0.71      0.71      1.03      0.01         0.01
  YSB6556YSB1171              0.64      0.64      1.21      0.01         0.01
  
  
  ***************
  Pumping Summary
  ***************
  
  ---------------------------------------------------------------------------------------------------------
                                                  Min       Avg       Max     Total     Power    % Time Off
                        Percent   Number of      Flow      Flow      Flow    Volume     Usage    Pump Curve
  Pump                 Utilized   Start-Ups       LPS       LPS       LPS  10^6 ltr     Kw-hr    Low   High
  ---------------------------------------------------------------------------------------------------------
  CC-R1                   43.75           8      0.00    603.86    683.00     6.494    110.10    0.0   70.2
  CC-R2                   79.17           9      0.00    324.03    683.00     4.440     72.24    0.0   95.3
  CC-S1                   25.00           5      0.00    198.76    200.00     1.430     10.41    0.0   29.6
  CC-S2                   60.42           9      0.00     86.29    200.00     0.787      5.70    0.0   86.5
  JK-R1                   80.21          10      0.00    123.18   1000.00     2.294      7.02    0.0    0.0
  JK-R2                   41.67          10      0.00    209.84   1000.00     2.234      5.84    0.0    0.0
  JK-S                    33.33           9      0.00    118.34    300.00     1.115     24.97    0.0    0.0
  XR-1                    97.91           1      0.00     95.00     95.00     2.679      9.64    0.0    0.0
  XR-2                    93.95           1      0.00     95.00     95.00     2.570      8.80    0.0    0.0
  XR-3                     0.00           0      0.00      0.00      0.00     0.000      0.00    0.0    0.0
  XR-4                     0.00           0      0.00      0.00      0.00     0.000      0.00    0.0    0.0
  

  Analysis begun on:  Thu Jun 15 06:46:21 2023
  Analysis ended on:  Thu Jun 15 06:46:25 2023
  Total elapsed time: 00:00:04