
  OWA STORM WATER MANAGEMENT MODEL - VERSION v5.2.3 (OWA 2023-03-28)
  ------------------------------------------------------------

  WARNING 04: minimum elevation drop used for Conduit WS02004404WS02004405
  WARNING 03: negative offset ignored for Link YS02001904YS02001907
  
  ****************
  Analysis Options
  ****************
  Flow Units ............... LPS
  Process Models:
    Rainfall/Runoff ........ YES
    RDII ................... NO
    Snowmelt ............... NO
    Groundwater ............ NO
    Flow Routing ........... YES
    Ponding Allowed ........ NO
    Water Quality .......... NO
  Infiltration Method ...... HORTON
  Flow Routing Method ...... DYNWAVE
  Surcharge Method ......... EXTRAN
  Starting Date ............ 08/28/2015 08:00:00
  Ending Date .............. 08/28/2015 16:00:00
  Antecedent Dry Days ...... 8.0
  Report Time Step ......... 00:01:00
  Wet Time Step ............ 00:01:00
  Dry Time Step ............ 00:01:00
  Routing Time Step ........ 30.00 sec
  Variable Time Step ....... YES
  Maximum Trials ........... 8
  Number of Threads ........ 1
  Head Tolerance ........... 0.001500 m
  
  
  **************************        Volume         Depth
  Runoff Quantity Continuity     hectare-m            mm
  **************************     ---------       -------
  Total Precipitation ......         2.822        46.588
  Evaporation Loss .........         0.000         0.000
  Infiltration Loss ........         0.229         3.785
  Surface Runoff ...........         2.533        41.807
  Final Storage ............         0.061         1.005
  Continuity Error (%) .....        -0.021
  
  
  **************************        Volume        Volume
  Flow Routing Continuity        hectare-m      10^6 ltr
  **************************     ---------     ---------
  Dry Weather Inflow .......         0.630         6.296
  Wet Weather Inflow .......         2.533        25.328
  Groundwater Inflow .......         0.000         0.000
  RDII Inflow ..............         0.000         0.000
  External Inflow ..........         0.105         1.045
  External Outflow .........         2.743        27.435
  Flooding Loss ............         0.893         8.935
  Evaporation Loss .........         0.000         0.000
  Exfiltration Loss ........         0.000         0.000
  Initial Stored Volume ....         0.303         3.031
  Final Stored Volume ......         0.173         1.731
  Continuity Error (%) .....        -6.725
  
  
  *************************
  Highest Continuity Errors
  *************************
  Node JK-storage (-48.22%)
  Node YS02001583 (-7.14%)
  Node YS02001884 (5.31%)
  Node CC-storage (-5.07%)
  Node HS02004842 (1.82%)
  
  
  ***************************
  Time-Step Critical Elements
  ***************************
  Link WS02006252WS02006251 (71.90%)
  Link YS02001793JiankangQianchi (8.95%)
  Link WS02006280WS02006229 (8.52%)
  Link WS02006238WS02006235 (3.03%)
  Link YS02001791YS02001793 (1.55%)
  
  
  ********************************
  Highest Flow Instability Indexes
  ********************************
  Link WS02006113WS02006111 (25)
  Link WS02006238WS02006235 (12)
  Link WS02006111WS02006112 (12)
  Link WS02004404WS02004405 (11)
  Link WS02006252WS02006251 (11)
  
  
  *********************************
  Most Frequent Nonconverging Nodes
  *********************************
  Node CC-1 (6.95%)
  Node CC-2 (6.95%)
  Node JK-1 (6.95%)
  Node JK-2 (6.95%)
  Node WSC (6.95%)
  
  
  *************************
  Routing Time Step Summary
  *************************
  Minimum Time Step           :     0.00 sec
  Average Time Step           :     1.61 sec
  Maximum Time Step           :    30.00 sec
  % of Time in Steady State   :     0.00
  Average Iterations per Step :     2.78
  % of Steps Not Converging   :     6.95
  Time Step Frequencies       :
     30.000 - 13.228 sec      :     0.01 %
     13.228 -  5.833 sec      :     0.13 %
      5.833 -  2.572 sec      :    16.38 %
      2.572 -  1.134 sec      :    43.44 %
      1.134 -  0.500 sec      :    40.05 %
  
  
  ***************************
  Subcatchment Runoff Summary
  ***************************
  
  ------------------------------------------------------------------------------------------------------------------------------
                            Total      Total      Total      Total     Imperv       Perv      Total       Total     Peak  Runoff
                           Precip      Runon       Evap      Infil     Runoff     Runoff     Runoff      Runoff   Runoff   Coeff
  Subcatchment                 mm         mm         mm         mm         mm         mm         mm    10^6 ltr      LPS
  ------------------------------------------------------------------------------------------------------------------------------
  sub0                      46.59       0.00       0.00       0.97      42.07       2.30      44.37        0.04    26.69   0.952
  sub1                      46.59       0.00       0.00       1.64      40.21       3.49      43.70        0.29   174.97   0.938
  sub10                     46.59       0.00       0.00       1.16      41.58       2.57      44.15        0.49   300.86   0.948
  sub11                     46.59       0.00       0.00       1.14      41.60       2.59      44.18        0.51   336.88   0.948
  sub12                     46.59       0.00       0.00       1.85      39.35       4.21      43.56        0.38   270.32   0.935
  sub14                     46.59       0.00       0.00       1.30      41.14       2.90      44.03        0.42   267.50   0.945
  sub15                     46.59       0.00       0.00       5.05      31.64       8.92      40.56        0.70   398.34   0.871
  sub16                     46.59       0.00       0.00       5.23      30.30      10.14      40.45        0.42   270.50   0.868
  sub17                     46.59       0.00       0.00       5.10      30.75       9.81      40.56        0.35   219.64   0.871
  sub2                      46.59       0.00       0.00       7.17      28.45      10.07      38.52        0.36   172.44   0.827
  sub22                     46.59       0.00       0.00       7.65      25.77      12.39      38.16        2.41  1305.92   0.819
  sub23                     46.59       0.00       0.00       6.24      28.49      11.00      39.48        1.88  1095.25   0.847
  sub3                      46.59       0.00       0.00       7.74      28.41       9.50      37.90        0.85   370.07   0.814
  sub4                      46.59       0.00       0.00       1.82      40.05       3.31      43.36        0.90   413.56   0.931
  sub5                      46.59       0.00       0.00       1.01      42.02       2.25      44.28        0.50   303.31   0.950
  sub60                     46.59       0.00       0.00       1.74      39.79       3.85      43.64        0.57   381.09   0.937
  sub61                     46.59       0.00       0.00       2.52      37.53       5.40      42.94        0.79   526.20   0.922
  sub62                     46.59       0.00       0.00       1.16      41.57       2.57      44.14        1.21   735.10   0.947
  sub63                     46.59       0.00       0.00       4.64      32.10       8.87      40.98        0.93   576.38   0.880
  sub64                     46.59       0.00       0.00       2.35      38.39       4.64      43.03        1.03   590.84   0.924
  sub65                     46.59       0.00       0.00       2.03      39.28       4.03      43.30        1.19   658.80   0.929
  sub66                     46.59       0.00       0.00       5.70      32.00       7.81      39.82        1.86   834.59   0.855
  sub67                     46.59       0.00       0.00       1.12      41.61       2.61      44.22        0.82   576.08   0.949
  sub68                     46.59       0.00       0.00       2.09      38.88       4.44      43.31        1.19   754.66   0.930
  sub69                     46.59       0.00       0.00       1.84      39.49       5.15      44.64        1.65   881.13   0.958
  sub7                      46.59       0.00       0.00       1.28      41.15       2.91      44.06        0.15    99.87   0.946
  sub70                     46.59       0.00       0.00       6.06      30.58       9.78      40.37        1.17   470.30   0.866
  sub71                     46.59       0.00       0.00       1.19      41.53       2.54      44.07        1.15   642.47   0.946
  sub72                     46.59       0.00       0.00       1.06      41.92       2.21      44.13        0.61   306.81   0.947
  sub8                      46.59       0.00       0.00       1.29      41.14       2.90      44.04        0.28   182.39   0.945
  sub9                      46.59       0.00       0.00       1.30      41.14       2.90      44.04        0.21   136.12   0.945
  
  
  ******************
  Node Depth Summary
  ******************
  
  ---------------------------------------------------------------------------------
                                 Average  Maximum  Maximum  Time of Max    Reported
                                   Depth    Depth      HGL   Occurrence   Max Depth
  Node                 Type       Meters   Meters   Meters  days hr:min      Meters
  ---------------------------------------------------------------------------------
  HS02004478           JUNCTION     0.17     1.57    10.80     0  02:04        1.57
  HS02004479           JUNCTION     0.24     1.73    10.94     0  01:58        1.69
  HS02004480           JUNCTION     0.21     1.69    10.94     0  02:04        1.69
  HS02004770           JUNCTION     0.22     1.42    11.25     0  01:58        1.42
  HS02004777           JUNCTION     0.25     1.48    11.28     0  01:58        1.48
  HS02004785           JUNCTION     0.14     1.49    11.39     0  01:58        1.49
  HS02004788           JUNCTION     0.12     1.42    11.32     0  01:57        1.42
  HS02004792           JUNCTION     0.16     1.60    11.12     0  01:58        1.60
  HS02004799           JUNCTION     0.26     1.76    10.97     0  01:58        1.76
  HS02004802           JUNCTION     0.27     1.79    10.91     0  02:00        1.68
  HS02004807           JUNCTION     0.24     1.92    11.09     0  02:00        1.71
  HS02004817           JUNCTION     0.53     2.43    11.28     0  02:00        2.06
  HS02004824           JUNCTION     0.12     2.01    11.41     0  02:00        1.54
  HS02004830           JUNCTION     0.12     2.03    11.50     0  02:00        1.48
  HS02004837           JUNCTION     0.10     1.99    11.57     0  01:58        1.37
  HS02004842           JUNCTION     0.39     2.22    11.49     0  02:00        1.70
  HS02004848           JUNCTION     0.08     2.02    11.62     0  02:00        1.35
  HS02004852           JUNCTION     0.08     2.07    11.58     0  02:00        1.41
  HS02004856           JUNCTION     0.14     2.07    11.50     0  02:00        1.46
  HS02004862           JUNCTION     0.09     2.00    11.38     0  02:00        1.44
  HS02004870           JUNCTION     0.09     2.10    11.39     0  02:00        1.45
  HS02004876           JUNCTION     0.13     2.26    11.29     0  02:00        1.59
  HS02004881           JUNCTION     0.08     2.15    11.18     0  02:00        1.42
  HS02004901           JUNCTION     0.23     1.42    11.24     0  01:57        1.42
  WS02001211           JUNCTION     0.62     0.80     5.64     0  02:05        0.80
  WS02001212           JUNCTION     0.36     0.56     5.63     0  02:04        0.56
  WS02001213           JUNCTION     0.57     0.86     5.62     0  02:05        0.86
  WS02003059           JUNCTION     0.64     0.93     5.62     0  02:05        0.93
  WS02003060           JUNCTION     0.36     0.68     5.61     0  02:05        0.68
  WS02003066           JUNCTION     0.21     0.45     6.00     0  02:03        0.45
  WS02003067           JUNCTION     0.52     0.88     6.20     0  02:01        0.88
  WS02003069           JUNCTION     0.40     0.77     5.35     0  02:06        0.77
  WS02003072           JUNCTION     0.46     0.80     5.17     0  02:06        0.80
  WS02003073           JUNCTION     0.28     0.51     4.57     0  02:07        0.51
  WS02004138           JUNCTION     0.13     0.14     7.39     0  00:32        0.14
  WS02004139           JUNCTION     0.56     0.74     5.65     0  02:06        0.74
  WS02004401           JUNCTION     0.71     1.79     7.79     0  02:02        1.79
  WS02004402           JUNCTION     0.73     1.74     7.70     0  02:01        1.73
  WS02004403           JUNCTION     0.75     1.67     7.60     0  02:01        1.67
  WS02004404           JUNCTION     0.81     1.68     7.53     0  02:04        1.67
  WS02004405           JUNCTION     0.81     1.63     7.48     0  02:02        1.63
  WS02004406           JUNCTION     0.80     1.52     7.35     0  02:01        1.52
  WS02004407           JUNCTION     0.23     0.88     7.19     0  02:02        0.88
  WS02004409           JUNCTION     0.48     1.38     7.15     0  02:04        1.38
  WS02004410           JUNCTION     0.49     1.27     6.99     0  02:02        1.26
  WS02004411           JUNCTION     0.50     1.18     6.86     0  02:03        1.18
  WS02004412           JUNCTION     0.51     1.09     6.73     0  02:04        1.09
  WS02004413           JUNCTION     0.65     1.14     6.61     0  02:04        1.13
  WS02006109           JUNCTION     0.86     2.64     9.26     0  01:58        2.64
  WS02006110           JUNCTION     0.82     2.40     8.99     0  02:04        2.40
  WS02006111           JUNCTION     0.35     1.67     8.38     0  02:01        1.66
  WS02006112           JUNCTION     0.90     2.68     8.56     0  00:00        2.28
  WS02006113           JUNCTION     0.42     1.77     8.67     0  02:03        1.77
  WS02006115           JUNCTION     0.61     1.88     8.02     0  02:02        1.87
  WS02006116           JUNCTION     0.69     1.88     7.92     0  02:03        1.87
  WS02006228           JUNCTION     0.90     3.03     9.68     0  01:58        3.03
  WS02006229           JUNCTION     0.89     3.25     9.94     0  01:58        3.20
  WS02006230           JUNCTION     0.83     2.65     9.39     0  01:55        2.65
  WS02006231           JUNCTION     0.58     2.20     9.33     0  02:04        2.20
  WS02006232           JUNCTION     0.67     2.18     9.22     0  01:55        2.18
  WS02006234           JUNCTION     0.56     1.96     9.12     0  01:54        1.96
  WS02006235           JUNCTION     0.58     1.98     9.15     0  02:35        1.93
  WS02006238           JUNCTION     0.60     2.00     9.14     0  02:35        1.93
  WS02006239           JUNCTION     0.54     1.85     9.05     0  02:04        1.85
  WS02006240           JUNCTION     0.50     1.77     9.06     0  01:45        1.74
  WS02006242           JUNCTION     0.54     1.55     8.82     0  01:45        1.55
  WS02006243           JUNCTION     0.44     1.48     8.90     0  01:46        1.37
  WS02006245           JUNCTION     0.43     1.32     8.81     0  01:46        1.27
  WS02006247           JUNCTION     0.44     1.29     8.79     0  01:46        1.25
  WS02006248           JUNCTION     0.39     1.10     8.69     0  01:46        1.10
  WS02006249           JUNCTION     0.42     1.09     8.69     0  01:46        1.09
  WS02006251           JUNCTION     0.46     2.21     9.88     0  02:00        2.08
  WS02006252           JUNCTION     0.33     1.50     9.74     0  02:00        1.50
  WS02006253           JUNCTION     0.52     3.52    11.16     0  02:00        2.74
  WS02006256           JUNCTION     0.87     2.35     9.28     0  00:11        2.35
  WS02006280           JUNCTION     0.23     1.77    10.04     0  01:58        1.70
  WS02006284           JUNCTION     0.49     1.94    10.34     0  01:58        1.89
  WS02006287           JUNCTION     0.23     1.72    10.68     0  02:00        1.72
  WSF200               JUNCTION     0.20     0.51     5.74     0  02:05        0.51
  YS02001580           JUNCTION     0.06     1.05     9.59     0  01:58        0.77
  YS02001583           JUNCTION     0.09     1.14     9.64     0  01:58        0.82
  YS02001586           JUNCTION     0.15     1.13     9.30     0  01:57        1.13
  YS02001590           JUNCTION     0.23     1.40     9.26     0  01:58        1.38
  YS02001593           JUNCTION     0.16     1.35     9.21     0  01:58        1.32
  YS02001596           JUNCTION     0.22     1.69     9.11     0  01:58        1.65
  YS02001600           JUNCTION     0.27     1.87     9.00     0  01:58        1.87
  YS02001601           JUNCTION     0.46     2.06     8.90     0  01:57        2.06
  YS02001602           JUNCTION     0.38     1.87     8.77     0  01:57        1.87
  YS02001605           JUNCTION     0.35     1.78     8.68     0  01:57        1.78
  YS02001607           JUNCTION     0.35     1.66     8.50     0  02:04        1.66
  YS02001610           JUNCTION     0.39     1.68     8.48     0  01:57        1.68
  YS02001613           JUNCTION     0.35     1.70     8.54     0  01:57        1.70
  YS02001616           JUNCTION     0.29     1.61     8.52     0  01:57        1.58
  YS02001619           JUNCTION     0.27     1.61     8.54     0  01:57        1.61
  YS02001622           JUNCTION     0.25     1.62     8.52     0  01:57        1.56
  YS02001625           JUNCTION     0.50     1.78     8.38     0  01:57        1.78
  YS02001629           JUNCTION     0.36     1.85     8.40     0  01:57        1.85
  YS02001633           JUNCTION     0.43     2.01     8.46     0  02:01        2.00
  YS02001641           JUNCTION     0.42     1.95     8.39     0  02:02        1.95
  YS02001644           JUNCTION     0.41     1.92     8.35     0  02:01        1.92
  YS02001647           JUNCTION     0.20     1.78     8.39     0  02:01        1.69
  YS02001649           JUNCTION     0.23     1.97     8.36     0  02:02        1.87
  YS02001652           JUNCTION     0.12     1.90     8.49     0  02:01        1.70
  YS02001655           JUNCTION     0.09     1.87     8.72     0  02:01        1.49
  YS02001658           JUNCTION     0.07     1.85     9.00     0  02:01        1.25
  YS02001661           JUNCTION     0.12     1.20     8.60     0  02:02        1.04
  YS02001664           JUNCTION     0.04     0.54     8.47     0  02:02        0.40
  YS02001745           JUNCTION     0.04     0.78     8.29     0  02:01        0.77
  YS02001748           JUNCTION     0.06     1.83     8.91     0  02:02        1.07
  YS02001751           JUNCTION     0.07     1.77     8.65     0  02:02        1.26
  YS02001754           JUNCTION     0.09     1.81     8.42     0  02:02        1.52
  YS02001757           JUNCTION     0.23     2.04     8.30     0  02:02        1.86
  YS02001759           JUNCTION     0.17     1.99     8.35     0  02:02        1.84
  YS02001762           JUNCTION     0.16     1.99     8.39     0  02:02        1.83
  YS02001765           JUNCTION     0.15     1.97     8.42     0  02:02        1.81
  YS02001767           JUNCTION     0.15     1.93     8.42     0  02:02        1.81
  YS02001770           JUNCTION     0.17     1.95     8.45     0  02:00        1.90
  YS02001774           JUNCTION     0.23     2.00     8.42     0  02:02        1.94
  YS02001779           JUNCTION     0.07     1.68     8.37     0  02:00        1.68
  YS02001783           JUNCTION     0.19     1.43     7.57     0  02:00        1.28
  YS02001784           JUNCTION     0.21     1.23     7.29     0  02:00        1.21
  YS02001786           JUNCTION     0.18     0.96     6.99     0  02:00        0.87
  YS02001788           JUNCTION     0.13     0.62     6.60     0  02:02        0.62
  YS02001790           JUNCTION     0.16     0.72     6.37     0  02:04        0.72
  YS02001791           JUNCTION     0.10     0.44     5.91     0  02:02        0.43
  YS02001793           JUNCTION     0.06     0.25     5.08     0  02:11        0.25
  YS02001882           JUNCTION     0.25     1.83     8.55     0  01:59        1.83
  YS02001884           JUNCTION     0.34     1.92     8.54     0  01:59        1.92
  YS02001887           JUNCTION     0.41     1.92     8.46     0  01:59        1.92
  YS02001890           JUNCTION     0.44     1.81     8.32     0  01:58        1.81
  YS02001895           JUNCTION     0.22     1.58     8.33     0  02:04        1.58
  YS02001898           JUNCTION     0.23     1.60     8.34     0  02:00        1.60
  YS02001901           JUNCTION     0.33     1.71     8.32     0  02:00        1.71
  YS02001904           JUNCTION     0.32     1.66     8.29     0  02:00        1.66
  YS02001907           JUNCTION     0.62     1.96     8.25     0  01:59        1.96
  YS02001910           JUNCTION     0.43     2.02     8.53     0  02:00        2.01
  YS02001915           JUNCTION     0.25     1.97     8.69     0  02:00        1.91
  YS02001918           JUNCTION     0.12     1.81     8.88     0  02:00        1.81
  YS02001920           JUNCTION     0.20     2.10     9.11     0  02:00        1.83
  YS02001923           JUNCTION     0.09     2.03     9.29     0  02:00        1.53
  YS02001926           JUNCTION     0.13     1.90     9.35     0  02:00        1.32
  YS02001929           JUNCTION     0.07     1.78     9.47     0  02:00        1.05
  YS02006553           JUNCTION     0.63     2.01     8.30     0  02:00        1.97
  YS02006556           JUNCTION     0.60     2.04     8.36     0  02:00        1.94
  YS02006558           JUNCTION     0.64     2.10     8.36     0  02:00        1.98
  YS02006561           JUNCTION     0.12     1.13     7.79     0  02:00        0.88
  YS02163301           JUNCTION     0.38     1.92     8.43     0  01:59        1.91
  YS02163601           JUNCTION     0.47     2.03     8.43     0  02:01        2.03
  YS02164001           JUNCTION     0.40     1.96     8.42     0  02:04        1.96
  YSB1154              JUNCTION     0.37     1.97    11.03     0  01:58        1.86
  YSB1171              JUNCTION     0.52     1.95    10.85     0  01:58        1.95
  YSB1174              JUNCTION     0.33     1.82    10.93     0  01:58        1.79
  YSB6556              JUNCTION     0.27     1.80    10.97     0  01:58        1.72
  CC-1                 OUTFALL      0.00     0.00     0.00     0  00:00        0.00
  CC-2                 OUTFALL      0.00     0.00     0.00     0  00:00        0.00
  JK-1                 OUTFALL      0.00     0.00     0.00     0  00:00        0.00
  JK-2                 OUTFALL      0.00     0.00     0.00     0  00:00        0.00
  WSC                  OUTFALL      0.28     0.51     1.18     0  02:07        0.51
  CC-storage           STORAGE      0.27     1.04     6.54     0  02:47        1.04
  JK-storage           STORAGE      0.06     3.00     3.80     0  00:05        3.00
  XR-storage           STORAGE      7.87     9.26     7.26     0  08:00        9.26
  
  
  *******************
  Node Inflow Summary
  *******************
  
  -------------------------------------------------------------------------------------------------
                                  Maximum  Maximum                  Lateral       Total        Flow
                                  Lateral    Total  Time of Max      Inflow      Inflow     Balance
                                   Inflow   Inflow   Occurrence      Volume      Volume       Error
  Node                 Type           LPS      LPS  days hr:min    10^6 ltr    10^6 ltr     Percent
  -------------------------------------------------------------------------------------------------
  HS02004478           JUNCTION      0.00  2260.20     0  02:02           0        7.13      -0.011
  HS02004479           JUNCTION      0.00   519.18     0  02:00           0       0.737       0.092
  HS02004480           JUNCTION      0.00  2165.15     0  01:58           0        5.47       0.043
  HS02004770           JUNCTION   1095.25  1095.25     0  02:02        1.88        2.11       0.135
  HS02004777           JUNCTION      0.03   794.88     0  01:57    0.000864        1.65       0.311
  HS02004785           JUNCTION      0.15   798.22     0  01:57     0.00432        1.65       0.022
  HS02004788           JUNCTION    400.01  1002.83     0  01:57       0.746        2.39      -0.001
  HS02004792           JUNCTION   1306.20  2039.24     0  02:02        2.42        4.81       0.001
  HS02004799           JUNCTION    267.50  1770.49     0  01:58       0.419        4.77       0.054
  HS02004802           JUNCTION      0.00   827.09     0  02:03           0        1.69       0.233
  HS02004807           JUNCTION    336.88   826.29     0  02:03       0.513        1.73       0.235
  HS02004817           JUNCTION      0.60   500.32     0  02:03      0.0173        1.28       1.292
  HS02004824           JUNCTION    413.61   702.07     0  01:58       0.906        1.46       0.043
  HS02004830           JUNCTION      0.15   703.52     0  01:58     0.00432       0.747       0.168
  HS02004837           JUNCTION    307.21   930.33     0  01:58        0.67        1.06       0.070
  HS02004842           JUNCTION      0.00   910.14     0  01:59           0       0.714       1.853
  HS02004848           JUNCTION    370.07  1144.75     0  01:59       0.853        1.41       0.000
  HS02004852           JUNCTION      0.00  1128.99     0  01:59           0        1.27       0.004
  HS02004856           JUNCTION    136.12  1255.35     0  02:00       0.212        1.48       0.090
  HS02004862           JUNCTION    172.64  1320.58     0  02:00       0.365        1.84      -0.002
  HS02004870           JUNCTION    182.39  1431.66     0  02:00       0.281        2.12      -0.024
  HS02004876           JUNCTION    174.97  1400.98     0  02:00       0.291        2.41       0.034
  HS02004881           JUNCTION     99.87  1499.07     0  02:00       0.149        2.56      -0.014
  HS02004901           JUNCTION    270.50   484.67     0  02:04       0.424       0.606       0.296
  WS02001211           JUNCTION      7.35   205.43     0  02:40       0.212        5.44       0.612
  WS02001212           JUNCTION      0.00   212.89     0  02:40           0        5.41       0.290
  WS02001213           JUNCTION      0.00   217.25     0  02:40           0        5.39       0.332
  WS02003059           JUNCTION      0.00   221.77     0  02:39           0        5.38       0.596
  WS02003060           JUNCTION     16.53  1476.12     0  02:05       0.476        13.6       0.110
  WS02003066           JUNCTION      0.00  1273.09     0  02:02           0        7.74       0.019
  WS02003067           JUNCTION      0.00  1273.53     0  02:02           0        7.75       0.057
  WS02003069           JUNCTION      0.32  1476.37     0  02:05     0.00922        13.6       0.115
  WS02003072           JUNCTION      0.00  1476.33     0  02:06           0        13.5       0.155
  WS02003073           JUNCTION      1.82  1478.27     0  02:06      0.0524        13.6       0.161
  WS02004138           JUNCTION      0.00   190.00     0  00:29           0        5.25       0.054
  WS02004139           JUNCTION      0.32   190.32     0  00:32     0.00924        5.26       0.507
  WS02004401           JUNCTION      0.00  1273.63     0  02:02           0        7.86       0.145
  WS02004402           JUNCTION      0.00  1274.26     0  02:02           0        7.85       0.143
  WS02004403           JUNCTION      0.00  1274.35     0  02:02           0        7.84       0.140
  WS02004404           JUNCTION      0.16  1274.85     0  02:02     0.00467        7.83       0.114
  WS02004405           JUNCTION      0.04  1275.17     0  02:02      0.0011        7.82       0.164
  WS02004406           JUNCTION      0.00  1274.71     0  02:02           0        7.81       0.278
  WS02004407           JUNCTION      0.00  1274.72     0  02:02           0        7.78       0.021
  WS02004409           JUNCTION      0.00  1273.60     0  02:02           0        7.78       0.040
  WS02004410           JUNCTION      0.00  1274.35     0  02:04           0        7.78       0.064
  WS02004411           JUNCTION      0.00  1273.75     0  02:02           0        7.77       0.078
  WS02004412           JUNCTION      0.00  1273.93     0  02:02           0        7.77       0.106
  WS02004413           JUNCTION      0.00  1273.79     0  02:02           0        7.76       0.177
  WS02006109           JUNCTION      1.23  1308.01     0  00:00      0.0354        7.63       0.153
  WS02006110           JUNCTION      0.00  1121.27     0  02:14           0        7.46      -0.470
  WS02006111           JUNCTION      0.00  1176.04     0  00:00           0        7.49      -0.504
  WS02006112           JUNCTION    219.64  2307.30     0  00:00       0.348        7.88      -0.002
  WS02006113           JUNCTION      0.00  1121.22     0  02:15           0        7.46      -0.609
  WS02006115           JUNCTION      0.00  2152.75     0  00:00           0        7.86       0.059
  WS02006116           JUNCTION      0.00  1273.91     0  02:02           0        7.86       0.036
  WS02006228           JUNCTION      0.00  1266.07     0  02:02           0        7.58       0.084
  WS02006229           JUNCTION      0.00  2261.34     0  02:02           0        9.26       0.109
  WS02006230           JUNCTION     10.28  1003.71     0  02:02       0.296        3.86       0.120
  WS02006231           JUNCTION      0.00   453.23     0  02:01           0        2.92      -0.116
  WS02006232           JUNCTION      0.00   453.67     0  02:04           0        2.92       0.170
  WS02006234           JUNCTION      0.00   453.11     0  01:59           0        2.91      -0.075
  WS02006235           JUNCTION      0.00   482.07     0  03:30           0         2.9       0.148
  WS02006238           JUNCTION      0.00   415.77     0  02:08           0        2.46      -0.090
  WS02006239           JUNCTION      0.00   415.24     0  02:08           0        2.46      -0.141
  WS02006240           JUNCTION      0.00   414.87     0  02:07           0        2.46       0.050
  WS02006242           JUNCTION      0.00   414.96     0  02:05           0        2.46       0.085
  WS02006243           JUNCTION      0.00   297.80     0  03:21           0        2.17      -0.005
  WS02006245           JUNCTION      0.00   309.70     0  01:46           0        2.17       0.354
  WS02006247           JUNCTION      0.00   322.47     0  01:46           0        2.17       0.062
  WS02006248           JUNCTION      0.00   348.74     0  01:54           0        2.38      -0.030
  WS02006249           JUNCTION      0.00  1338.49     0  02:00           0        4.45       0.151
  WS02006251           JUNCTION      0.08  1532.63     0  02:00     0.00222        4.49       0.018
  WS02006252           JUNCTION      0.00   396.72     0  02:00           0        1.96      -0.457
  WS02006253           JUNCTION     26.69  1529.31     0  02:00      0.0359        2.62       0.001
  WS02006256           JUNCTION      0.00   300.00     0  01:50           0        1.07      -0.034
  WS02006280           JUNCTION      0.00  2259.37     0  02:02           0        7.12       0.022
  WS02006284           JUNCTION      0.10  2260.19     0  02:04     0.00275        7.12      -0.009
  WS02006287           JUNCTION      0.00  2259.67     0  02:02           0        7.12       0.010
  WSF200               JUNCTION      0.00  1272.91     0  02:03           0        7.74       0.010
  YS02001580           JUNCTION      0.00   127.95     0  01:57           0     0.00426      -0.373
  YS02001583           JUNCTION      0.00   213.47     0  01:58           0      0.0151      -6.662
  YS02001586           JUNCTION    470.30   470.55     0  02:05        1.17        1.18       0.126
  YS02001590           JUNCTION      0.00   317.91     0  02:08           0        1.07      -0.042
  YS02001593           JUNCTION      0.00   317.95     0  02:05           0        1.07       0.013
  YS02001596           JUNCTION      0.00   317.91     0  02:08           0        1.07       0.004
  YS02001600           JUNCTION      0.00   317.93     0  02:08           0        1.07       0.002
  YS02001601           JUNCTION    881.13  1198.39     0  02:03        1.65        2.72       0.024
  YS02001602           JUNCTION      0.00   539.98     0  01:57           0        1.98       0.017
  YS02001605           JUNCTION      0.00   539.37     0  01:57           0        1.92       0.018
  YS02001607           JUNCTION      0.00   538.22     0  01:57           0        1.92       0.100
  YS02001610           JUNCTION      0.00   541.06     0  01:57           0        1.92       0.122
  YS02001613           JUNCTION      0.00   547.60     0  01:57           0         1.7       0.089
  YS02001616           JUNCTION      0.00   556.44     0  01:57           0         1.7       0.028
  YS02001619           JUNCTION    834.59   941.56     0  01:57        1.86        3.56      -0.001
  YS02001622           JUNCTION      0.00   946.77     0  01:57           0        3.56      -0.008
  YS02001625           JUNCTION      0.00   952.90     0  01:57           0        3.56       0.245
  YS02001629           JUNCTION      0.00   953.31     0  01:57           0         3.2       0.020
  YS02001633           JUNCTION    659.00  1418.49     0  01:59         1.2        4.39       0.076
  YS02001641           JUNCTION      0.00  1416.34     0  01:59           0        4.38       0.064
  YS02001644           JUNCTION    590.88  1861.84     0  01:59        1.03        5.41       0.063
  YS02001647           JUNCTION      0.00  1861.93     0  01:59           0        5.37       0.005
  YS02001649           JUNCTION      0.00  2160.09     0  01:59           0        6.31       0.007
  YS02001652           JUNCTION      0.00   691.53     0  02:03           0       0.935      -0.088
  YS02001655           JUNCTION      0.15   690.47     0  02:03     0.00443       0.936       0.063
  YS02001658           JUNCTION      0.00   713.58     0  02:01           0       0.931      -0.079
  YS02001661           JUNCTION      0.00   800.54     0  02:03           0        0.93      -0.011
  YS02001664           JUNCTION    576.38   576.38     0  02:02        0.93        0.93      -0.005
  YS02001745           JUNCTION    381.10   468.39     0  02:01       0.574       0.574       0.178
  YS02001748           JUNCTION      0.04   651.23     0  02:02      0.0013       0.575      -0.286
  YS02001751           JUNCTION      0.01   457.16     0  02:02    0.000317       0.582       0.064
  YS02001754           JUNCTION      0.26   457.74     0  02:02     0.00749       0.596      -0.105
  YS02001757           JUNCTION      0.00  3313.41     0  02:03           0        8.91       0.029
  YS02001759           JUNCTION    526.24  1257.93     0  02:01       0.789        2.01      -0.006
  YS02001762           JUNCTION      0.00   740.27     0  02:01           0        1.22       0.014
  YS02001765           JUNCTION      0.00   738.39     0  02:03           0        1.22       0.016
  YS02001767           JUNCTION      0.54   737.46     0  02:03      0.0154        1.23       0.012
  YS02001770           JUNCTION    735.26   736.49     0  02:02        1.21        1.25      -0.008
  YS02001774           JUNCTION      0.00   437.91     0  02:00           0      0.0607       1.774
  YS02001779           JUNCTION      0.01   444.42     0  02:00    0.000144      0.0199      -3.338
  YS02001783           JUNCTION      0.00  1157.99     0  02:01           0        3.32       0.007
  YS02001784           JUNCTION      1.06  1158.35     0  02:01      0.0305        3.35       0.015
  YS02001786           JUNCTION      0.06  1158.79     0  02:01     0.00162        3.36       0.019
  YS02001788           JUNCTION      0.07  1159.68     0  02:01     0.00204        3.36       0.009
  YS02001790           JUNCTION      0.15  1172.47     0  02:00     0.00446        3.36       0.016
  YS02001791           JUNCTION      0.00  1280.67     0  02:04           0        3.36      -0.012
  YS02001793           JUNCTION      0.00  1229.22     0  02:03           0        3.36       0.002
  YS02001882           JUNCTION      0.00    48.01     0  01:58           0      0.0126       5.911
  YS02001884           JUNCTION      0.00    96.75     0  01:58           0      0.0483       5.606
  YS02001887           JUNCTION    576.53   576.56     0  02:02       0.836       0.869       0.527
  YS02001890           JUNCTION      0.00   577.04     0  02:02           0       0.828       0.625
  YS02001895           JUNCTION      0.00   515.38     0  02:03           0        0.81       0.180
  YS02001898           JUNCTION      0.00   516.27     0  02:03           0       0.809       0.042
  YS02001901           JUNCTION      0.00   515.58     0  02:03           0       0.811       0.402
  YS02001904           JUNCTION      0.00   515.70     0  02:03           0       0.815       0.345
  YS02001907           JUNCTION      0.00  1571.12     0  02:01           0        2.65       0.668
  YS02001910           JUNCTION      0.00  1060.16     0  02:01           0        1.84       0.388
  YS02001915           JUNCTION    642.49  1060.42     0  02:01        1.15        1.89       0.086
  YS02001918           JUNCTION      0.00   489.45     0  02:00           0       0.768       0.017
  YS02001920           JUNCTION      2.87   489.16     0  02:00      0.0827       0.748       0.101
  YS02001923           JUNCTION      0.04   538.02     0  01:59     0.00109       0.649      -0.077
  YS02001926           JUNCTION      0.05   872.50     0  02:00      0.0015       0.628      -0.144
  YS02001929           JUNCTION    306.81   690.52     0  02:00       0.607       0.612      -0.110
  YS02006553           JUNCTION      0.00   793.86     0  02:15           0        2.15       0.549
  YS02006556           JUNCTION      0.00   794.30     0  02:15           0        2.16       0.369
  YS02006558           JUNCTION    755.54  1164.17     0  02:00        1.22        3.35       0.111
  YS02006561           JUNCTION      0.00  1165.36     0  02:00           0        3.32      -0.004
  YS02163301           JUNCTION      0.00   936.95     0  02:17           0         3.2       0.046
  YS02163601           JUNCTION      0.11  1418.18     0  01:59     0.00317        4.38       0.111
  YS02164001           JUNCTION      0.00  1417.37     0  01:59           0        4.37       0.050
  YSB1154              JUNCTION    303.31   303.31     0  02:02       0.502       0.503       0.289
  YSB1171              JUNCTION      0.00   574.18     0  02:02           0        0.89       0.694
  YSB1174              JUNCTION    270.32   270.32     0  02:02       0.381       0.381       0.325
  YSB6556              JUNCTION      0.00   303.55     0  02:02           0       0.503       0.224
  CC-1                 OUTFALL       0.00   683.00     0  00:05           0         6.1       0.000
  CC-2                 OUTFALL       0.00   683.00     0  00:05           0        3.65       0.000
  JK-1                 OUTFALL       0.00  1000.00     0  00:05           0        2.22       0.000
  JK-2                 OUTFALL       0.00  1000.00     0  01:59           0        1.92       0.000
  WSC                  OUTFALL       0.00  1478.33     0  02:07           0        13.5       0.000
  CC-storage           STORAGE       0.00  3312.74     0  02:02           0        11.1      -4.826
  JK-storage           STORAGE       0.00  1252.33     0  02:11           0        3.51     -32.531
  XR-storage           STORAGE     200.00   200.00     0  00:00        5.76        6.36       0.001
  
  
  **********************
  Node Surcharge Summary
  **********************
  
  Surcharging occurs when water rises above the top of the highest conduit.
  ---------------------------------------------------------------------
                                               Max. Height   Min. Depth
                                   Hours       Above Crown    Below Rim
  Node                 Type      Surcharged         Meters       Meters
  ---------------------------------------------------------------------
  HS02004478           JUNCTION        0.33          0.654        0.286
  HS02004479           JUNCTION        0.45          0.933        0.117
  HS02004480           JUNCTION        0.49          0.985        0.115
  HS02004770           JUNCTION        0.41          0.720        0.000
  HS02004777           JUNCTION        0.41          0.780        0.000
  HS02004785           JUNCTION        0.37          0.790        0.000
  HS02004788           JUNCTION        0.35          0.720        0.000
  HS02004792           JUNCTION        0.46          0.900        0.000
  HS02004799           JUNCTION        0.57          1.060        0.000
  HS02004802           JUNCTION        0.50          1.075        0.135
  HS02004807           JUNCTION        0.48          1.220        0.000
  HS02004817           JUNCTION        1.01          1.730        0.010
  HS02004824           JUNCTION        0.35          1.310        0.000
  HS02004830           JUNCTION        0.33          1.328        0.002
  HS02004837           JUNCTION        0.29          1.291        0.049
  HS02004842           JUNCTION        0.41          1.520        0.000
  HS02004848           JUNCTION        0.26          1.319        0.051
  HS02004852           JUNCTION        0.29          1.370        0.050
  HS02004856           JUNCTION        0.26          1.300        0.000
  HS02004862           JUNCTION        0.30          1.300        0.000
  HS02004870           JUNCTION        0.31          1.400        0.000
  HS02004876           JUNCTION        0.36          1.560        0.000
  HS02004881           JUNCTION        0.34          1.450        0.000
  HS02004901           JUNCTION        0.42          0.720        0.000
  WS02004401           JUNCTION        1.43          0.792        0.868
  WS02004402           JUNCTION        1.45          0.738        1.002
  WS02004403           JUNCTION        1.46          0.671        1.359
  WS02004404           JUNCTION        1.54          0.684        2.096
  WS02004405           JUNCTION        1.52          0.631        2.169
  WS02004406           JUNCTION        1.50          0.524        1.926
  WS02004409           JUNCTION        0.77          0.375        1.985
  WS02004410           JUNCTION        0.75          0.273        2.267
  WS02004411           JUNCTION        0.70          0.183        2.347
  WS02004412           JUNCTION        0.60          0.091        2.219
  WS02004413           JUNCTION        1.18          0.140        2.060
  WS02006109           JUNCTION        1.89          1.820        0.000
  WS02006110           JUNCTION        1.61          1.490        0.360
  WS02006111           JUNCTION        1.09          0.858        1.012
  WS02006112           JUNCTION        1.68          1.680        0.000
  WS02006113           JUNCTION        1.13          0.972        0.958
  WS02006115           JUNCTION        1.36          0.868        1.382
  WS02006116           JUNCTION        1.38          0.817        1.473
  WS02006228           JUNCTION        1.88          2.200        0.000
  WS02006229           JUNCTION        0.75          1.067        0.003
  WS02006230           JUNCTION        1.53          1.570        0.000
  WS02006231           JUNCTION        1.58          1.494        0.036
  WS02006232           JUNCTION        1.68          1.480        0.000
  WS02006234           JUNCTION        1.58          1.240        0.000
  WS02006235           JUNCTION        1.60          1.275        0.015
  WS02006238           JUNCTION        1.62          1.278        0.152
  WS02006239           JUNCTION        1.58          1.105        0.185
  WS02006240           JUNCTION        1.57          1.060        0.330
  WS02006242           JUNCTION        1.60          0.820        0.000
  WS02006243           JUNCTION        1.56          0.770        0.000
  WS02006245           JUNCTION        1.53          0.613        0.237
  WS02006247           JUNCTION        1.53          0.581        0.179
  WS02006248           JUNCTION        1.48          0.380        0.000
  WS02006249           JUNCTION        1.50          0.390        0.000
  WS02006251           JUNCTION        1.35          1.180        0.000
  WS02006252           JUNCTION        1.41          1.100        0.000
  WS02006253           JUNCTION        1.36          2.480        0.000
  WS02006256           JUNCTION        7.40          2.050        0.000
  WS02006280           JUNCTION        0.59          0.723        0.057
  WS02006284           JUNCTION        0.51          0.662        0.138
  WS02006287           JUNCTION        0.43          0.720        0.170
  YS02001580           JUNCTION        0.41          0.450        0.000
  YS02001583           JUNCTION        0.42          0.500        0.000
  YS02001586           JUNCTION        0.53          0.510        0.000
  YS02001590           JUNCTION        0.59          0.750        0.000
  YS02001593           JUNCTION        0.60          0.727        0.113
  YS02001596           JUNCTION        0.70          0.960        0.110
  YS02001600           JUNCTION        0.83          1.190        0.000
  YS02001601           JUNCTION        1.23          1.440        0.000
  YS02001602           JUNCTION        1.09          1.270        0.000
  YS02001605           JUNCTION        1.03          1.180        0.000
  YS02001607           JUNCTION        0.53          0.656        0.024
  YS02001610           JUNCTION        0.56          0.680        0.000
  YS02001613           JUNCTION        0.52          0.700        0.000
  YS02001616           JUNCTION        0.48          0.610        0.000
  YS02001619           JUNCTION        0.47          0.610        0.000
  YS02001622           JUNCTION        0.46          0.620        0.000
  YS02001625           JUNCTION        0.64          0.780        0.000
  YS02001629           JUNCTION        0.36          0.470        0.000
  YS02001633           JUNCTION        0.65          0.986        0.074
  YS02001641           JUNCTION        0.54          0.948        0.152
  YS02001644           JUNCTION        0.48          0.920        0.000
  YS02001647           JUNCTION        0.26          0.776        0.124
  YS02001649           JUNCTION        0.30          0.972        0.078
  YS02001652           JUNCTION        0.19          0.868        0.262
  YS02001655           JUNCTION        0.13          0.875        0.325
  YS02001658           JUNCTION        0.04          0.853        0.447
  YS02001661           JUNCTION        0.01          0.131        1.259
  YS02001748           JUNCTION        0.01          0.753        0.437
  YS02001751           JUNCTION        0.08          0.775        0.425
  YS02001754           JUNCTION        0.13          0.759        0.391
  YS02001757           JUNCTION        0.28          1.040        0.170
  YS02001759           JUNCTION        0.24          0.990        0.220
  YS02001762           JUNCTION        0.22          0.992        0.158
  YS02001765           JUNCTION        0.21          0.967        0.133
  YS02001767           JUNCTION        0.20          0.928        0.102
  YS02001770           JUNCTION        0.19          0.920        0.000
  YS02001774           JUNCTION        0.22          0.998        0.052
  YS02001779           JUNCTION        0.15          0.680        0.000
  YS02001783           JUNCTION        0.41          0.627        0.973
  YS02001784           JUNCTION        0.38          0.426        1.064
  YS02001786           JUNCTION        0.29          0.157        1.273
  YS02001882           JUNCTION        0.36          0.830        0.000
  YS02001884           JUNCTION        0.37          0.863        0.007
  YS02001887           JUNCTION        0.40          0.872        0.078
  YS02001890           JUNCTION        0.41          0.760        0.000
  YS02001895           JUNCTION        0.35          0.582        0.168
  YS02001898           JUNCTION        0.34          0.571        0.169
  YS02001901           JUNCTION        0.39          0.711        0.159
  YS02001904           JUNCTION        0.38          0.662        0.188
  YS02001907           JUNCTION        0.59          0.950        0.000
  YS02001910           JUNCTION        0.44          1.018        0.082
  YS02001915           JUNCTION        0.36          0.974        0.026
  YS02001918           JUNCTION        0.28          0.810        0.000
  YS02001920           JUNCTION        0.29          1.103        0.037
  YS02001923           JUNCTION        0.01          0.820        0.000
  YS02001926           JUNCTION        0.01          0.900        0.000
  YS02001929           JUNCTION        0.01          0.780        0.000
  YS02006553           JUNCTION        0.60          1.014        0.176
  YS02006556           JUNCTION        0.51          1.005        0.345
  YS02006558           JUNCTION        0.50          0.997        0.403
  YS02006561           JUNCTION        0.25          0.326        0.824
  YS02163301           JUNCTION        0.63          0.916        0.114
  YS02163601           JUNCTION        0.68          1.028        0.052
  YS02164001           JUNCTION        0.56          0.961        0.139
  YSB1154              JUNCTION        0.67          1.269        0.131
  YSB1171              JUNCTION        0.68          1.100        0.000
  YSB1174              JUNCTION        0.60          1.119        0.131
  YSB6556              JUNCTION        0.55          1.100        0.000
  
  
  *********************
  Node Flooding Summary
  *********************
  
  Flooding refers to all water that overflows a node, whether it ponds or not.
  --------------------------------------------------------------------------
                                                             Total   Maximum
                                 Maximum   Time of Max       Flood    Ponded
                        Hours       Rate    Occurrence      Volume     Depth
  Node                 Flooded       LPS   days hr:min    10^6 ltr    Meters
  --------------------------------------------------------------------------
  HS02004770              0.23    595.48      0  02:02       0.280     0.000
  HS02004777              0.01     38.95      0  01:58       0.000     0.000
  HS02004785              0.01     75.31      0  01:58       0.000     0.000
  HS02004788              0.01    439.13      0  01:57       0.003     0.000
  HS02004792              0.24    895.26      0  02:02       0.459     0.000
  HS02004799              0.08    116.25      0  02:00       0.018     0.000
  HS02004807              0.01     15.61      0  02:00       0.000     0.000
  HS02004824              0.01      4.97      0  02:00       0.000     0.000
  HS02004842              0.01     63.57      0  02:00       0.000     0.000
  HS02004856              0.01      7.13      0  02:00       0.000     0.000
  HS02004862              0.01    359.25      0  02:00       0.004     0.000
  HS02004870              0.01    319.19      0  02:00       0.001     0.000
  HS02004876              0.01     79.49      0  02:00       0.000     0.000
  HS02004881              0.01    310.99      0  02:00       0.000     0.000
  HS02004901              0.30    484.67      0  02:04       0.376     0.000
  WS02006109              0.28    212.98      0  02:02       0.132     0.000
  WS02006112              0.01   1153.65      0  00:00       0.035     0.000
  WS02006228              0.01      5.59      0  01:58       0.000     0.000
  WS02006230              0.52    550.82      0  02:02       0.654     0.000
  WS02006232              0.13      5.41      0  02:04       0.000     0.000
  WS02006234              0.59    128.23      0  01:59       0.184     0.000
  WS02006242              0.72    155.04      0  01:45       0.300     0.000
  WS02006243              0.01     95.12      0  01:46       0.000     0.000
  WS02006248              0.97    348.67      0  01:54       0.957     0.000
  WS02006249              1.34   1275.96      0  02:00       2.807     0.000
  WS02006251              0.01     72.14      0  02:00       0.000     0.000
  WS02006252              0.17    395.93      0  02:00       0.098     0.000
  WS02006253              0.01    126.77      0  02:00       0.000     0.000
  WS02006256              0.85    296.36      0  02:25       0.469     0.000
  YS02001580              0.01     83.60      0  01:58       0.000     0.000
  YS02001583              0.01    144.87      0  01:58       0.000     0.000
  YS02001586              0.31    153.45      0  02:05       0.098     0.000
  YS02001590              0.01      2.87      0  01:58       0.000     0.000
  YS02001600              0.01      1.85      0  01:58       0.000     0.000
  YS02001601              0.46    800.54      0  02:03       0.740     0.000
  YS02001602              0.31     61.97      0  02:07       0.061     0.000
  YS02001605              0.01      4.19      0  01:57       0.000     0.000
  YS02001610              0.26    334.91      0  02:05       0.212     0.000
  YS02001613              0.01     16.76      0  01:57       0.000     0.000
  YS02001616              0.01      8.19      0  01:57       0.000     0.000
  YS02001619              0.01     99.81      0  01:57       0.000     0.000
  YS02001622              0.01    153.60      0  01:57       0.000     0.000
  YS02001625              0.21    935.95      0  02:04       0.359     0.000
  YS02001629              0.05    222.98      0  01:57       0.009     0.000
  YS02001644              0.04    313.67      0  02:03       0.027     0.000
  YS02001770              0.01    129.87      0  02:00       0.000     0.000
  YS02001779              0.02    387.64      0  02:00       0.004     0.000
  YS02001882              0.01     13.48      0  01:59       0.000     0.000
  YS02001890              0.08     77.85      0  02:04       0.012     0.000
  YS02001907              0.23   1161.54      0  02:01       0.485     0.000
  YS02001918              0.01    206.28      0  02:00       0.003     0.000
  YS02001923              0.01    269.29      0  02:00       0.001     0.000
  YS02001926              0.01    655.22      0  02:00       0.003     0.000
  YS02001929              0.01    352.79      0  02:00       0.000     0.000
  YSB1171                 0.16    463.81      0  02:03       0.155     0.000
  YSB6556                 0.01      9.29      0  01:58       0.000     0.000
  
  
  **********************
  Storage Volume Summary
  **********************
  
  ------------------------------------------------------------------------------------------------
                         Average    Avg   Evap  Exfil     Maximum    Max    Time of Max    Maximum
                          Volume   Pcnt   Pcnt   Pcnt      Volume   Pcnt     Occurrence    Outflow
  Storage Unit           1000 m   Full   Loss   Loss     1000 m   Full    days hr:min        LPS
  ------------------------------------------------------------------------------------------------
  CC-storage               0.766   11.9    0.0    0.0       2.890   45.1       0  02:47    1566.00
  JK-storage               0.003    1.0    0.0    0.0       0.151   51.7       0  00:05    2300.00
  XR-storage               0.945   65.6    0.0    0.0       1.111   77.1       0  08:00     190.00
  
  
  ***********************
  Outfall Loading Summary
  ***********************
  
  -----------------------------------------------------------
                         Flow       Avg       Max       Total
                         Freq      Flow      Flow      Volume
  Outfall Node           Pcnt       LPS       LPS    10^6 ltr
  -----------------------------------------------------------
  CC-1                  51.28    589.07    683.00       6.096
  CC-2                  75.29    266.06    683.00       3.654
  JK-1                  81.72    116.53   1000.00       2.222
  JK-2                  47.93    183.51   1000.00       1.917
  WSC                   99.99    548.37   1478.33      13.545
  -----------------------------------------------------------
  System                71.24   1703.54   4036.99      27.435
  
  
  ********************
  Link Flow Summary
  ********************
  
  -----------------------------------------------------------------------------
                                 Maximum  Time of Max   Maximum    Max/    Max/
                                  |Flow|   Occurrence   |Veloc|    Full    Full
  Link                 Type          LPS  days hr:min     m/sec    Flow   Depth
  -----------------------------------------------------------------------------
  1                    CONDUIT   1478.33     0  02:07      3.68    0.51    0.51
  HS02004478WS02006287 CONDUIT   2259.67     0  02:02      2.58    0.63    1.00
  HS02004479HS02004480 CONDUIT    519.42     0  02:00      0.74    0.50    1.00
  HS02004480HS02004478 CONDUIT   2156.92     0  01:58      3.08    9.08    1.00
  HS02004770HS02004777 CONDUIT    794.85     0  01:57      1.14    1.45    1.00
  HS02004777HS02004785 CONDUIT    798.07     0  01:57      1.19    0.98    1.00
  HS02004785HS02004788 CONDUIT    772.70     0  01:57      1.35    5.83    1.00
  HS02004788HS02004792 CONDUIT    819.82     0  01:58      1.44    0.54    1.00
  HS02004792HS02004799 CONDUIT   1583.85     0  01:58      2.26    0.97    1.00
  HS02004799HS02004480 CONDUIT   1769.02     0  01:58      2.53    2.24    1.00
  HS02004802HS02004478 CONDUIT    827.86     0  02:03      1.18    0.73    1.00
  HS02004807HS02004802 CONDUIT    827.09     0  02:03      1.18    1.58    1.00
  HS02004817HS02004807 CONDUIT    500.11     0  02:03      0.71    0.30    1.00
  HS02004817HS02004824 CONDUIT    499.72     0  02:03      0.71    0.23    1.00
  HS02004824HS02004830 CONDUIT    703.37     0  01:58      1.01    0.92    1.00
  HS02004830HS02004837 CONDUIT    721.63     0  01:58      1.12    0.72    1.00
  HS02004837HS02004842 CONDUIT    910.14     0  01:59      1.30    0.54    1.00
  HS02004842HS02004848 CONDUIT    909.34     0  01:59      1.46    0.53    1.00
  HS02004848HS02004852 CONDUIT   1128.99     0  01:59      1.66    1.27    1.00
  HS02004852HS02004856 CONDUIT   1139.54     0  01:59      1.63    1.30    1.00
  HS02004856HS02004862 CONDUIT   1179.20     0  02:00      1.73    1.18    1.00
  HS02004862HS02004870 CONDUIT   1267.63     0  02:00      1.93    1.37    1.00
  HS02004870HS02004876 CONDUIT   1238.87     0  02:00      1.87    0.82    1.00
  HS02004876HS02004881 CONDUIT   1403.68     0  02:00      2.38   14.93    1.00
  HS02004881HS02006253 CONDUIT   1503.12     0  02:00      2.29    0.29    1.00
  HS02004901HS02004770 CONDUIT    265.46     0  02:11      0.38    1.00    1.00
  WS02001211WS02001212 CONDUIT    212.89     0  02:40      0.54    0.16    0.68
  WS02001212WS02001213 CONDUIT    217.25     0  02:40      1.03    0.34    0.55
  WS02001213WS02003059 CONDUIT    221.77     0  02:39      0.47    0.37    0.89
  WS02003059WS02003060 CONDUIT    228.43     0  02:39      0.66    0.15    0.80
  WS02003060WS02003069 CONDUIT   1476.05     0  02:05      2.08    0.58    0.60
  WS02003066WSF200     CONDUIT   1272.91     0  02:03      3.26    0.22    0.38
  WS02003067WS02003066 CONDUIT   1273.09     0  02:02      1.98    0.41    0.55
  WS02003069WS02003072 CONDUIT   1476.33     0  02:06      1.88    0.71    0.65
  WS02003072WS02003073 CONDUIT   1476.45     0  02:06      2.04    3.19    0.61
  WS02004138WS02004139 CONDUIT    190.00     0  00:32      2.17    0.04    0.41
  WS02004139WS02001211 CONDUIT    198.09     0  02:40      0.55    0.25    0.60
  WS02004401WS02004402 CONDUIT   1274.26     0  02:02      2.07    1.53    1.00
  WS02004402WS02004403 CONDUIT   1274.35     0  02:02      1.84    1.83    1.00
  WS02004403WS02004404 CONDUIT   1274.69     0  02:02      1.68    0.92    1.00
  WS02004404WS02004405 CONDUIT   1275.14     0  02:02      1.86   12.49    1.00
  WS02004405WS02004406 CONDUIT   1274.71     0  02:02      1.80    2.51    1.00
  WS02004406WS02004407 CONDUIT   1274.72     0  02:02      1.75    0.57    0.94
  WS02004407WS02004409 CONDUIT   1273.60     0  02:02      1.88    0.45    0.94
  WS02004409WS02004410 CONDUIT   1274.35     0  02:04      1.62    1.65    1.00
  WS02004410WS02004411 CONDUIT   1273.75     0  02:02      1.62    1.74    1.00
  WS02004411WS02004412 CONDUIT   1273.93     0  02:02      1.62    1.81    1.00
  WS02004412WS02004413 CONDUIT   1273.79     0  02:02      1.62    0.85    1.00
  WS02004413WS02003067 CONDUIT   1273.53     0  02:02      1.98    0.55    0.76
  WS02006109WS02006110 CONDUIT   1306.78     0  00:00      3.15    2.51    1.00
  WS02006110WS02006113 CONDUIT   1121.22     0  02:15      2.23    1.02    1.00
  WS02006111WS02006112 CONDUIT   2307.30     0  00:00      9.18    1.10    1.00
  WS02006112WS02006115 CONDUIT   2152.75     0  00:00      2.85    1.27    1.00
  WS02006113WS02006111 CONDUIT   1176.04     0  00:00      2.68    1.41    1.00
  WS02006115WS02006116 CONDUIT   1273.91     0  02:02      1.81    1.63    1.00
  WS02006116WS02004401 CONDUIT   1273.63     0  02:02      2.21    1.76    1.00
  WS02006228WS02006109 CONDUIT   1265.83     0  02:02      2.52    5.53    1.00
  WS02006229WS02006228 CONDUIT   1266.07     0  02:02      2.52    4.19    1.00
  WS02006230WS02006229 CONDUIT    993.43     0  02:02      2.58   22.11    1.00
  WS02006231WS02006230 CONDUIT    453.23     0  02:01      1.29    6.87    1.00
  WS02006232WS02006231 CONDUIT    453.67     0  02:04      1.18    0.95    1.00
  WS02006234WS02006232 CONDUIT    453.11     0  01:59      1.18    0.92    1.00
  WS02006235WS02006234 CONDUIT    432.25     0  03:30      1.16    4.56    1.00
  WS02006238WS02006235 CONDUIT    415.77     0  02:08      1.23    0.93    1.00
  WS02006239WS02006238 CONDUIT    415.24     0  02:08      1.08    1.33    1.00
  WS02006240WS02006239 CONDUIT    414.87     0  02:07      1.09    1.31    1.00
  WS02006242WS02006240 CONDUIT    414.96     0  02:05      1.08    1.65    1.00
  WS02006243WS02006242 CONDUIT    310.83     0  03:20      1.14    0.66    1.00
  WS02006245WS02006243 CONDUIT    297.80     0  03:21      1.23    0.88    1.00
  WS02006247WS02006245 CONDUIT    309.70     0  01:46      1.17    2.46    1.00
  WS02006248WS02006247 CONDUIT    322.47     0  01:46      1.18    0.70    1.00
  WS02006249WS02006248 CONDUIT    332.38     0  01:46      1.17    1.82    1.00
  WS02006251WS02006249 CONDUIT   1338.49     0  02:00      3.48    3.86    1.00
  WS02006252WS02006251 CONDUIT   1298.45     0  00:05     20.66    4.77    1.00
  WS02006253WS02006251 CONDUIT   1532.55     0  02:00      3.98    4.60    1.00
  WS02006256WS02006235 CONDUIT    238.68     0  03:30      3.38    2.53    1.00
  WS02006280WS02006229 CONDUIT   2261.34     0  02:02      4.22    0.48    1.00
  WS02006284WS02006280 CONDUIT   2259.37     0  02:02      2.98    0.95    1.00
  WS02006287WS02006284 CONDUIT   2260.09     0  02:04      2.88    1.05    1.00
  WSF200WS02003060     CONDUIT   1272.57     0  02:03      2.36    0.28    0.50
  YS02001580YS02001583 CONDUIT    127.95     0  01:57      0.78    0.50    1.00
  YS02001583YS02001586 CONDUIT    181.82     0  01:57      0.80    0.28    1.00
  YS02001586YS02001590 CONDUIT    317.91     0  02:08      1.26    0.56    1.00
  YS02001590YS02001593 CONDUIT    317.95     0  02:05      1.12    2.00    1.00
  YS02001593YS02001596 CONDUIT    317.91     0  02:08      1.74    0.50    1.00
  YS02001596YS02001600 CONDUIT    317.93     0  02:08      1.21    0.62    1.00
  YS02001600YS02001601 CONDUIT    317.95     0  02:04      1.12    0.55    1.00
  YS02001601YS02001602 CONDUIT    539.98     0  01:57      1.91    1.95    1.00
  YS02001602YS02001605 CONDUIT    539.37     0  01:57      1.91   11.41    1.00
  YS02001605YS02001607 CONDUIT    538.22     0  01:57      1.90    2.95    1.00
  YS02001607YS02001610 CONDUIT    541.06     0  01:57      0.69    0.51    1.00
  YS02001610YS02001613 CONDUIT    547.60     0  01:57      0.70    0.63    1.00
  YS02001613YS02001616 CONDUIT    556.44     0  01:57      0.71    0.48    1.00
  YS02001616YS02001619 CONDUIT    521.95     0  01:57      0.67    0.91    1.00
  YS02001619YS02001622 CONDUIT    946.77     0  01:57      1.21    1.40    1.00
  YS02001622YS02001625 CONDUIT    952.90     0  01:57      1.21    0.51    1.00
  YS02001625YS02001629 CONDUIT    953.31     0  01:57      1.22    0.45    1.00
  YS02001629YS02163301 CONDUIT    936.95     0  02:17      1.19    1.15    1.00
  YS02001633YS02163601 CONDUIT   1418.07     0  01:59      1.81    1.49    1.00
  YS02001641YS02001644 CONDUIT   1415.63     0  01:59      1.80    4.58    1.00
  YS02001644YS02001647 CONDUIT   1861.93     0  01:59      2.39    1.09    1.00
  YS02001647YS02001649 CONDUIT   1863.22     0  01:59      2.37    0.98    1.00
  YS02001649YS02001757 CONDUIT   2166.74     0  01:59      2.76    1.31    1.00
  YS02001652YS02001649 CONDUIT    692.59     0  02:03      0.88    0.34    1.00
  YS02001655YS02001652 CONDUIT    691.53     0  02:03      1.33    0.34    1.00
  YS02001658YS02001655 CONDUIT    690.32     0  02:03      1.94    0.29    1.00
  YS02001661YS02001658 CONDUIT    713.58     0  02:01      2.39    0.28    1.00
  YS02001664YS02001661 CONDUIT    800.54     0  02:03      2.40    0.25    0.74
  YS02001745YS02001748 CONDUIT    651.18     0  02:02      2.29    0.25    0.87
  YS02001748YS02001751 CONDUIT    457.15     0  02:02      1.78    0.23    1.00
  YS02001751YS02001754 CONDUIT    457.48     0  02:02      1.41    0.22    1.00
  YS02001754YS02001757 CONDUIT    457.11     0  02:02      0.58    0.18    1.00
  YS02001757CaochengTiaoxuchi CONDUIT   3312.74     0  02:02      6.68    1.43    0.85
  YS02001759YS02001757 CONDUIT   1260.24     0  02:01      1.60    0.90    1.00
  YS02001762YS02001759 CONDUIT    744.99     0  02:01      0.95    0.86    1.00
  YS02001765YS02001762 CONDUIT    740.27     0  02:01      0.94    0.69    1.00
  YS02001767YS02001765 CONDUIT    738.39     0  02:03      0.94    0.93    1.00
  YS02001770YS02001767 CONDUIT    736.92     0  02:03      0.94    2.92    1.00
  YS02001774YS02001770 CONDUIT    437.91     0  02:00      0.56    0.28    1.00
  YS02001779YS02001774 CONDUIT    444.42     0  02:00      0.57    0.22    1.00
  YS02001783YS02001784 CONDUIT   1157.29     0  02:01      2.30    1.60    1.00
  YS02001784YS02001785 CONDUIT   1158.74     0  02:01      2.31    2.70    1.00
  YS02001786YS02001788 CONDUIT   1159.61     0  02:01      2.48    2.23    0.89
  YS02001788YS02001790 CONDUIT   1172.32     0  02:00      2.72    0.86    0.84
  YS02001790YS02001791 CONDUIT   1280.67     0  02:04      3.42    1.39    0.70
  YS02001791YS02001793 CONDUIT   1229.22     0  02:03      6.77    0.53    0.42
  YS02001793JiankangQianchi CONDUIT   1252.33     0  02:11     24.44    0.10    0.50
  YS02001882YS02001884 CONDUIT     48.01     0  01:58      0.11    0.06    1.00
  YS02001884YS02001887 CONDUIT     96.75     0  01:58      0.12    0.13    1.00
  YS02001887YS02001890 CONDUIT    577.04     0  02:02      0.73    0.99    1.00
  YS02001890YS02001895 CONDUIT    515.38     0  02:03      0.66    0.24    1.00
  YS02001895YS02001898 CONDUIT    516.27     0  02:03      0.66    0.90    1.00
  YS02001898YS02001901 CONDUIT    515.58     0  02:03      0.66    0.33    1.00
  YS02001901YS02001904 CONDUIT    515.70     0  02:03      0.66    0.80    1.00
  YS02001904YS02001907 CONDUIT    515.70     0  02:03      0.66    0.18    1.00
  YS02001907YS02006553 CONDUIT    793.86     0  02:15      0.88    0.93    1.00
  YS02001910YS02001907 CONDUIT   1060.83     0  02:01      1.35    0.60    1.00
  YS02001915YS02001910 CONDUIT   1060.16     0  02:01      1.35    0.53    1.00
  YS02001918YS02001915 CONDUIT    489.45     0  02:00      0.63    0.27    1.00
  YS02001920YS02001918 CONDUIT    486.29     0  02:00      0.64    0.47    1.00
  YS02001923YS02001920 CONDUIT    487.70     0  02:00      0.70    0.22    1.00
  YS02001926YS02001923 CONDUIT    571.04     0  02:00      0.97    0.82    1.00
  YS02001929YS02001926 CONDUIT    501.09     0  02:00      1.18    0.24    1.00
  YS02006553YS02006556 CONDUIT    794.30     0  02:15      1.01    0.68    1.00
  YS02006556YS02006558 CONDUIT    795.46     0  02:15      1.01    0.63    1.00
  YS02006558YS02006561 CONDUIT   1165.36     0  02:00      4.12    2.58    1.00
  YS02006561YS02001783 CONDUIT   1157.99     0  02:01      2.30    0.60    1.00
  YS02163301YS02001633 CONDUIT    937.72     0  02:17      1.19    0.88    1.00
  YS02163601YS02164001 CONDUIT   1417.37     0  01:59      1.80    1.26    1.00
  YS02164001YS02001641 CONDUIT   1416.34     0  01:59      1.80    1.93    1.00
  YSB1154YSB6556       CONDUIT    303.55     0  02:02      0.79    0.55    1.00
  YSB1171HS02004479    CONDUIT    519.18     0  02:00      1.03    0.35    1.00
  YSB1174YSB1171       CONDUIT    270.70     0  02:01      0.70    0.41    1.00
  YSB6556YSB1171       CONDUIT    303.82     0  02:02      0.79    0.31    1.00
  CC-R1                PUMP       683.00     0  00:05              1.00
  CC-R2                PUMP       683.00     0  00:05              1.00
  CC-S1                PUMP       200.00     0  01:40              1.00
  CC-S2                PUMP       200.00     0  00:05              1.00
  JK-R1                PUMP      1000.00     0  00:05              1.00
  JK-R2                PUMP      1000.00     0  01:59              1.00
  JK-S                 PUMP       300.00     0  01:50              1.00
  XR-1                 PUMP        95.00     0  00:10              1.00
  XR-2                 PUMP        95.00     0  00:29              1.00
  XR-3                 PUMP         0.00     0  00:00              0.00
  XR-4                 PUMP         0.00     0  00:00              0.00
  
  
  ***************************
  Flow Classification Summary
  ***************************
  
  -------------------------------------------------------------------------------------
                      Adjusted    ---------- Fraction of Time in Flow Class ---------- 
                       /Actual         Up    Down  Sub   Sup   Up    Down  Norm  Inlet 
  Conduit               Length    Dry  Dry   Dry   Crit  Crit  Crit  Crit  Ltd   Ctrl  
  -------------------------------------------------------------------------------------
  1                       1.00   0.00  0.00  0.00  0.00  1.00  0.00  0.00  0.49  0.00
  HS02004478WS02006287    1.00   0.17  0.00  0.00  0.66  0.17  0.00  0.00  0.61  0.00
  HS02004479HS02004480    1.00   0.04  0.00  0.00  0.96  0.00  0.00  0.00  0.12  0.00
  HS02004480HS02004478    1.00   0.13  0.00  0.00  0.61  0.00  0.00  0.26  0.00  0.00
  HS02004770HS02004777    1.00   0.00  0.13  0.00  0.87  0.00  0.00  0.00  0.03  0.00
  HS02004777HS02004785    1.00   0.00  0.00  0.00  1.00  0.00  0.00  0.00  0.13  0.00
  HS02004785HS02004788    1.00   0.00  0.00  0.00  1.00  0.00  0.00  0.00  0.00  0.00
  HS02004788HS02004792    1.00   0.00  0.00  0.00  0.99  0.01  0.00  0.00  0.92  0.00
  HS02004792HS02004799    1.00   0.00  0.00  0.00  0.99  0.01  0.00  0.00  0.89  0.00
  HS02004799HS02004480    1.00   0.00  0.03  0.00  0.84  0.00  0.13  0.00  0.00  0.00
  HS02004802HS02004478    1.00   0.13  0.01  0.00  0.86  0.00  0.00  0.00  0.03  0.00
  HS02004807HS02004802    1.00   0.13  0.00  0.00  0.85  0.00  0.00  0.02  0.00  0.00
  HS02004817HS02004807    1.00   0.00  0.13  0.00  0.87  0.00  0.00  0.00  0.01  0.00
  HS02004817HS02004824    1.00   0.00  0.00  0.00  1.00  0.00  0.00  0.00  0.84  0.00
  HS02004824HS02004830    1.00   0.00  0.00  0.00  1.00  0.00  0.00  0.00  0.01  0.00
  HS02004830HS02004837    1.00   0.00  0.00  0.00  1.00  0.00  0.00  0.00  0.91  0.00
  HS02004837HS02004842    1.00   0.00  0.00  0.00  0.99  0.01  0.00  0.00  0.11  0.00
  HS02004842HS02004848    1.00   0.00  0.13  0.00  0.87  0.00  0.00  0.00  0.58  0.00
  HS02004848HS02004852    1.00   0.13  0.00  0.00  0.87  0.00  0.00  0.00  0.71  0.00
  HS02004852HS02004856    1.00   0.13  0.01  0.00  0.86  0.00  0.00  0.00  0.69  0.00
  HS02004856HS02004862    1.00   0.00  0.18  0.00  0.82  0.00  0.00  0.00  0.75  0.00
  HS02004862HS02004870    1.00   0.00  0.00  0.00  1.00  0.00  0.00  0.00  0.04  0.00
  HS02004870HS02004876    1.00   0.00  0.00  0.00  1.00  0.00  0.00  0.00  0.88  0.00
  HS02004876HS02004881    1.00   0.01  0.00  0.00  0.85  0.14  0.00  0.00  0.00  0.00
  HS02004881HS02006253    1.00   0.03  0.02  0.00  0.27  0.00  0.00  0.68  0.22  0.00
  HS02004901HS02004770    1.00   0.13  0.00  0.00  0.87  0.00  0.00  0.00  0.00  0.00
  WS02001211WS02001212    1.00   0.00  0.02  0.00  0.98  0.00  0.00  0.00  0.00  0.00
  WS02001212WS02001213    1.00   0.02  0.00  0.00  0.30  0.00  0.68  0.00  0.00  0.00
  WS02001213WS02003059    1.00   0.00  0.01  0.00  0.99  0.00  0.00  0.00  0.00  0.00
  WS02003059WS02003060    1.00   0.00  0.00  0.00  1.00  0.00  0.00  0.00  0.03  0.00
  WS02003060WS02003069    1.00   0.00  0.00  0.00  0.97  0.03  0.00  0.00  0.46  0.00
  WS02003066WSF200        1.00   0.06  0.00  0.00  0.00  0.94  0.00  0.00  0.71  0.00
  WS02003067WS02003066    1.00   0.05  0.01  0.00  0.94  0.00  0.00  0.00  0.00  0.00
  WS02003069WS02003072    1.00   0.00  0.00  0.00  0.99  0.01  0.00  0.00  0.66  0.00
  WS02003072WS02003073    1.00   0.00  0.00  0.00  0.00  0.00  0.00  1.00  0.00  0.00
  WS02004138WS02004139    1.00   0.02  0.00  0.00  0.97  0.01  0.00  0.00  0.98  0.00
  WS02004139WS02001211    1.00   0.00  0.01  0.00  0.99  0.00  0.00  0.00  0.00  0.00
  WS02004401WS02004402    1.00   0.00  0.00  0.00  1.00  0.00  0.00  0.00  0.00  0.00
  WS02004402WS02004403    1.00   0.00  0.00  0.00  1.00  0.00  0.00  0.00  0.00  0.00
  WS02004403WS02004404    1.00   0.00  0.00  0.00  1.00  0.00  0.00  0.00  0.00  0.00
  WS02004404WS02004405    1.00   0.00  0.00  0.00  1.00  0.00  0.00  0.00  0.01  0.00
  WS02004405WS02004406    1.00   0.00  0.00  0.00  1.00  0.00  0.00  0.00  0.00  0.00
  WS02004406WS02004407    1.00   0.00  0.01  0.00  0.99  0.00  0.00  0.00  0.01  0.00
  WS02004407WS02004409    1.00   0.01  0.00  0.00  0.98  0.01  0.00  0.00  0.89  0.00
  WS02004409WS02004410    1.00   0.01  0.00  0.00  0.99  0.00  0.00  0.00  0.00  0.00
  WS02004410WS02004411    1.00   0.01  0.00  0.00  0.99  0.00  0.00  0.00  0.01  0.00
  WS02004411WS02004412    1.00   0.01  0.00  0.00  0.99  0.00  0.00  0.00  0.00  0.00
  WS02004412WS02004413    1.00   0.01  0.00  0.00  0.99  0.00  0.00  0.00  0.02  0.00
  WS02004413WS02003067    1.00   0.01  0.04  0.00  0.00  0.00  0.95  0.00  0.00  0.00
  WS02006109WS02006110    1.00   0.00  0.00  0.00  1.00  0.00  0.00  0.00  0.00  0.00
  WS02006110WS02006113    1.00   0.00  0.00  0.00  1.00  0.00  0.00  0.00  0.00  0.00
  WS02006111WS02006112    1.00   0.00  0.00  0.00  1.00  0.00  0.00  0.00  0.81  0.00
  WS02006112WS02006115    1.00   0.00  0.00  0.00  1.00  0.00  0.00  0.00  0.00  0.00
  WS02006113WS02006111    1.00   0.00  0.00  0.00  0.18  0.82  0.00  0.00  0.05  0.00
  WS02006115WS02006116    1.00   0.00  0.00  0.00  1.00  0.00  0.00  0.00  0.00  0.00
  WS02006116WS02004401    1.00   0.00  0.00  0.00  1.00  0.00  0.00  0.00  0.00  0.00
  WS02006228WS02006109    1.00   0.00  0.00  0.00  1.00  0.00  0.00  0.00  0.00  0.00
  WS02006229WS02006228    1.00   0.00  0.00  0.00  1.00  0.00  0.00  0.00  0.00  0.00
  WS02006230WS02006229    1.00   0.00  0.00  0.00  1.00  0.00  0.00  0.00  0.00  0.00
  WS02006231WS02006230    1.00   0.00  0.00  0.00  0.27  0.00  0.73  0.00  0.00  0.00
  WS02006232WS02006231    1.00   0.00  0.00  0.00  0.99  0.00  0.00  0.00  0.01  0.00
  WS02006234WS02006232    1.00   0.00  0.01  0.00  0.99  0.00  0.00  0.00  0.03  0.00
  WS02006235WS02006234    1.00   0.02  0.00  0.00  0.86  0.00  0.12  0.00  0.00  0.00
  WS02006238WS02006235    1.00   0.02  0.00  0.00  0.98  0.00  0.00  0.00  0.00  0.00
  WS02006239WS02006238    1.00   0.02  0.00  0.00  0.98  0.00  0.00  0.00  0.08  0.00
  WS02006240WS02006239    1.00   0.02  0.00  0.00  0.59  0.00  0.00  0.39  0.03  0.00
  WS02006242WS02006240    1.00   0.01  0.00  0.00  0.98  0.00  0.01  0.00  0.00  0.00
  WS02006243WS02006242    1.00   0.01  0.00  0.00  0.98  0.00  0.00  0.01  0.64  0.00
  WS02006245WS02006243    1.00   0.01  0.00  0.00  0.88  0.00  0.00  0.11  0.00  0.00
  WS02006247WS02006245    1.00   0.01  0.00  0.00  0.98  0.00  0.00  0.01  0.00  0.00
  WS02006248WS02006247    1.00   0.01  0.00  0.00  0.98  0.00  0.00  0.01  0.58  0.00
  WS02006249WS02006248    1.00   0.00  0.01  0.00  0.42  0.00  0.57  0.00  0.00  0.00
  WS02006251WS02006249    1.00   0.00  0.00  0.00  1.00  0.00  0.00  0.00  0.55  0.00
  WS02006252WS02006251    1.00   0.01  0.07  0.00  0.17  0.00  0.74  0.00  0.00  0.00
  WS02006253WS02006251    1.00   0.01  0.00  0.00  0.99  0.00  0.00  0.00  0.00  0.00
  WS02006256WS02006235    1.00   0.02  0.00  0.00  0.98  0.00  0.00  0.00  0.00  0.00
  WS02006280WS02006229    1.00   0.14  0.00  0.00  0.13  0.04  0.00  0.69  0.01  0.00
  WS02006284WS02006280    1.00   0.14  0.00  0.00  0.08  0.01  0.00  0.77  0.00  0.00
  WS02006287WS02006284    1.00   0.10  0.06  0.00  0.56  0.27  0.00  0.00  0.66  0.00
  WSF200WS02003060        1.00   0.00  0.06  0.00  0.70  0.24  0.00  0.00  0.64  0.00
  YS02001580YS02001583    1.00   0.24  0.59  0.00  0.17  0.00  0.00  0.00  0.68  0.00
  YS02001583YS02001586    1.00   0.43  0.35  0.00  0.22  0.00  0.00  0.00  0.69  0.00
  YS02001586YS02001590    1.00   0.13  0.00  0.00  0.40  0.04  0.00  0.43  0.37  0.00
  YS02001590YS02001593    1.00   0.13  0.01  0.00  0.09  0.00  0.78  0.00  0.00  0.00
  YS02001593YS02001596    1.00   0.14  0.00  0.00  0.10  0.01  0.00  0.75  0.02  0.00
  YS02001596YS02001600    1.00   0.14  0.00  0.00  0.18  0.01  0.00  0.67  0.06  0.00
  YS02001600YS02001601    1.00   0.13  0.01  0.00  0.86  0.00  0.00  0.00  0.62  0.00
  YS02001601YS02001602    1.00   0.13  0.01  0.00  0.86  0.00  0.00  0.00  0.00  0.00
  YS02001602YS02001605    1.00   0.14  0.00  0.00  0.86  0.00  0.00  0.00  0.00  0.00
  YS02001605YS02001607    1.00   0.14  0.00  0.00  0.86  0.00  0.00  0.00  0.00  0.00
  YS02001607YS02001610    1.00   0.13  0.01  0.00  0.86  0.00  0.00  0.00  0.02  0.00
  YS02001610YS02001613    1.00   0.13  0.00  0.00  0.87  0.00  0.00  0.00  0.01  0.00
  YS02001613YS02001616    1.00   0.13  0.00  0.00  0.87  0.00  0.00  0.00  0.01  0.00
  YS02001616YS02001619    1.00   0.13  0.00  0.00  0.87  0.00  0.00  0.00  0.00  0.00
  YS02001619YS02001622    1.00   0.13  0.00  0.00  0.87  0.00  0.00  0.00  0.30  0.00
  YS02001622YS02001625    1.00   0.13  0.00  0.00  0.87  0.00  0.00  0.00  0.05  0.00
  YS02001625YS02001629    1.00   0.13  0.06  0.00  0.13  0.00  0.69  0.00  0.00  0.00
  YS02001629YS02163301    1.00   0.16  0.01  0.00  0.83  0.00  0.00  0.00  0.00  0.00
  YS02001633YS02163601    1.00   0.00  0.01  0.00  0.99  0.00  0.00  0.00  0.15  0.00
  YS02001641YS02001644    1.00   0.00  0.01  0.00  0.99  0.00  0.00  0.00  0.00  0.00
  YS02001644YS02001647    1.00   0.00  0.18  0.00  0.82  0.00  0.00  0.00  0.00  0.00
  YS02001647YS02001649    1.00   0.00  0.18  0.00  0.49  0.33  0.00  0.00  0.58  0.00
  YS02001649YS02001757    1.00   0.00  0.00  0.00  0.82  0.18  0.00  0.00  0.87  0.00
  YS02001652YS02001649    1.00   0.00  0.00  0.00  0.96  0.04  0.00  0.00  0.76  0.00
  YS02001655YS02001652    1.00   0.00  0.00  0.00  0.15  0.02  0.00  0.83  0.10  0.00
  YS02001658YS02001655    1.00   0.00  0.14  0.00  0.59  0.26  0.00  0.00  0.74  0.00
  YS02001661YS02001658    1.00   0.14  0.00  0.00  0.44  0.42  0.00  0.00  0.73  0.00
  YS02001664YS02001661    1.00   0.13  0.00  0.00  0.75  0.12  0.00  0.00  0.86  0.00
  YS02001745YS02001748    1.00   0.00  0.00  0.00  0.02  0.01  0.00  0.97  0.02  0.00
  YS02001748YS02001751    1.00   0.00  0.00  0.00  0.75  0.25  0.00  0.00  0.84  0.00
  YS02001751YS02001754    1.00   0.00  0.00  0.00  0.09  0.01  0.00  0.90  0.04  0.00
  YS02001754YS02001757    1.00   0.00  0.00  0.00  1.00  0.00  0.00  0.00  0.88  0.00
  YS02001757CaochengTiaoxuchi    1.00   0.00  0.00  0.00  0.24  0.76  0.00  0.00  0.23  0.00
  YS02001759YS02001757    1.00   0.00  0.00  0.00  1.00  0.00  0.00  0.00  0.73  0.00
  YS02001762YS02001759    1.00   0.00  0.00  0.00  1.00  0.00  0.00  0.00  0.04  0.00
  YS02001765YS02001762    1.00   0.00  0.00  0.00  1.00  0.00  0.00  0.00  0.75  0.00
  YS02001767YS02001765    1.00   0.00  0.00  0.00  1.00  0.00  0.00  0.00  0.00  0.00
  YS02001770YS02001767    1.00   0.00  0.00  0.00  1.00  0.00  0.00  0.00  0.00  0.00
  YS02001774YS02001770    1.00   0.00  0.13  0.00  0.69  0.00  0.17  0.00  0.04  0.00
  YS02001779YS02001774    1.00   0.00  0.00  0.00  1.00  0.00  0.00  0.00  0.81  0.00
  YS02001783YS02001784    1.00   0.00  0.19  0.00  0.81  0.00  0.00  0.00  0.56  0.00
  YS02001784YS02001785    1.00   0.00  0.00  0.00  1.00  0.00  0.00  0.00  0.18  0.00
  YS02001786YS02001788    1.00   0.00  0.00  0.00  0.80  0.20  0.00  0.00  0.00  0.00
  YS02001788YS02001790    1.00   0.00  0.00  0.00  0.22  0.78  0.00  0.00  0.83  0.00
  YS02001790YS02001791    1.00   0.00  0.00  0.00  0.01  0.99  0.00  0.00  0.16  0.00
  YS02001791YS02001793    1.00   0.00  0.00  0.00  0.00  1.00  0.00  0.00  0.01  0.00
  YS02001793JiankangQianchi    1.00   0.00  0.00  0.00  0.03  0.97  0.00  0.00  0.07  0.00
  YS02001882YS02001884    1.00   0.16  0.01  0.00  0.83  0.00  0.00  0.00  0.00  0.00
  YS02001884YS02001887    1.00   0.06  0.05  0.00  0.89  0.00  0.00  0.00  0.00  0.00
  YS02001887YS02001890    1.00   0.00  0.00  0.00  0.97  0.00  0.03  0.00  0.00  0.00
  YS02001890YS02001895    1.00   0.00  0.17  0.00  0.83  0.00  0.00  0.00  0.00  0.00
  YS02001895YS02001898    1.00   0.17  0.00  0.00  0.81  0.00  0.02  0.00  0.00  0.00
  YS02001898YS02001901    1.00   0.17  0.00  0.00  0.82  0.00  0.00  0.00  0.01  0.00
  YS02001901YS02001904    1.00   0.17  0.00  0.00  0.83  0.00  0.00  0.00  0.00  0.00
  YS02001904YS02001907    1.00   0.00  0.17  0.00  0.83  0.00  0.00  0.00  0.00  0.00
  YS02001907YS02006553    1.00   0.00  0.02  0.00  0.98  0.00  0.00  0.00  0.00  0.00
  YS02001910YS02001907    1.00   0.00  0.00  0.00  0.97  0.00  0.00  0.03  0.12  0.00
  YS02001915YS02001910    1.00   0.00  0.00  0.00  0.96  0.04  0.00  0.00  0.17  0.00
  YS02001918YS02001915    1.00   0.00  0.00  0.00  0.98  0.02  0.00  0.00  0.78  0.00
  YS02001920YS02001918    1.00   0.00  0.00  0.00  1.00  0.00  0.00  0.00  0.01  0.00
  YS02001923YS02001920    1.00   0.00  0.00  0.00  1.00  0.00  0.00  0.00  0.94  0.00
  YS02001926YS02001923    1.00   0.00  0.07  0.00  0.04  0.00  0.88  0.00  0.00  0.00
  YS02001929YS02001926    1.00   0.00  0.13  0.00  0.87  0.00  0.00  0.00  0.84  0.00
  YS02006553YS02006556    1.00   0.01  0.00  0.00  0.99  0.00  0.00  0.00  0.03  0.00
  YS02006556YS02006558    1.00   0.00  0.00  0.00  1.00  0.00  0.00  0.00  0.00  0.00
  YS02006558YS02006561    1.00   0.19  0.00  0.00  0.04  0.77  0.00  0.00  0.19  0.00
  YS02006561YS02001783    1.00   0.19  0.00  0.00  0.07  0.74  0.00  0.00  0.70  0.00
  YS02163301YS02001633    1.00   0.00  0.16  0.00  0.84  0.00  0.00  0.00  0.00  0.00
  YS02163601YS02164001    1.00   0.00  0.08  0.00  0.92  0.00  0.00  0.00  0.00  0.00
  YS02164001YS02001641    1.00   0.01  0.07  0.00  0.92  0.00  0.00  0.00  0.06  0.00
  YSB1154YSB6556          1.00   0.12  0.00  0.00  0.88  0.00  0.00  0.00  0.02  0.00
  YSB1171HS02004479       1.00   0.04  0.00  0.00  0.95  0.00  0.00  0.01  0.10  0.00
  YSB1174YSB1171          1.00   0.05  0.04  0.00  0.91  0.00  0.00  0.00  0.00  0.00
  YSB6556YSB1171          1.00   0.04  0.08  0.00  0.88  0.00  0.00  0.00  0.00  0.00
  
  
  *************************
  Conduit Surcharge Summary
  *************************
  
  ----------------------------------------------------------------------------
                                                           Hours        Hours 
                         --------- Hours Full --------   Above Full   Capacity
  Conduit                Both Ends  Upstream  Dnstream   Normal Flow   Limited
  ----------------------------------------------------------------------------
  HS02004478WS02006287        0.33      0.33      0.49      0.01         0.01
  HS02004479HS02004480        0.50      0.50      0.51      0.01         0.01
  HS02004480HS02004478        0.43      0.49      0.43      1.51         0.43
  HS02004770HS02004777        0.41      0.41      0.41      0.10         0.06
  HS02004777HS02004785        0.37      0.37      0.41      0.01         0.01
  HS02004785HS02004788        0.35      0.37      0.35      1.21         0.34
  HS02004788HS02004792        0.35      0.35      0.46      0.01         0.01
  HS02004792HS02004799        0.46      0.46      0.57      0.01         0.01
  HS02004799HS02004480        0.49      0.49      0.57      0.65         0.01
  HS02004802HS02004478        0.44      0.44      0.50      0.01         0.01
  HS02004807HS02004802        0.48      0.48      0.50      0.13         0.12
  HS02004817HS02004807        0.48      0.48      1.00      0.01         0.01
  HS02004817HS02004824        0.35      0.35      1.00      0.01         0.01
  HS02004824HS02004830        0.33      0.33      0.35      0.01         0.01
  HS02004830HS02004837        0.29      0.29      0.33      0.01         0.01
  HS02004837HS02004842        0.29      0.29      0.41      0.01         0.01
  HS02004842HS02004848        0.26      0.26      0.41      0.01         0.01
  HS02004848HS02004852        0.26      0.26      0.29      0.02         0.01
  HS02004852HS02004856        0.29      0.29      0.30      0.02         0.01
  HS02004856HS02004862        0.26      0.26      0.30      0.01         0.01
  HS02004862HS02004870        0.30      0.30      0.31      0.03         0.01
  HS02004870HS02004876        0.31      0.31      0.36      0.01         0.01
  HS02004876HS02004881        0.34      0.36      0.34      1.26         0.34
  HS02004881HS02006253        0.34      0.34      1.36      0.01         0.01
  HS02004901HS02004770        0.41      0.41      0.42      0.01         0.01
  WS02003072WS02003073        0.01      0.01      0.01      2.35         0.01
  WS02004401WS02004402        1.43      1.43      1.45      1.27         1.27
  WS02004402WS02004403        1.45      1.45      1.45      1.43         1.42
  WS02004403WS02004404        1.45      1.45      1.54      0.01         0.01
  WS02004404WS02004405        1.52      1.54      1.52      3.09         1.52
  WS02004405WS02004406        1.50      1.52      1.50      1.64         1.50
  WS02004406WS02004407        0.01      0.01      1.50      0.01         0.01
  WS02004407WS02004409        0.01      0.01      0.77      0.01         0.01
  WS02004409WS02004410        0.75      0.77      0.75      1.35         0.75
  WS02004410WS02004411        0.70      0.75      0.70      1.40         0.70
  WS02004411WS02004412        0.60      0.70      0.60      1.42         0.60
  WS02004412WS02004413        0.60      0.60      1.18      0.01         0.01
  WS02004413WS02003067        0.01      0.01      1.18      0.01         0.01
  WS02006109WS02006110        1.60      1.61      1.91      1.62         0.01
  WS02006110WS02006113        1.13      1.13      1.91      0.26         0.01
  WS02006111WS02006112        1.08      1.09      2.01      0.01         0.01
  WS02006112WS02006115        1.36      1.36      1.67      0.01         0.01
  WS02006113WS02006111        1.11      1.13      1.11      1.27         1.11
  WS02006115WS02006116        1.37      1.37      1.38      1.35         1.33
  WS02006116WS02004401        1.43      1.43      1.43      1.41         1.39
  WS02006228WS02006109        1.89      1.92      1.89      2.38         1.89
  WS02006229WS02006228        1.88      1.90      1.88      2.00         1.88
  WS02006230WS02006229        1.93      1.94      1.93      3.72         1.08
  WS02006231WS02006230        1.53      1.53      1.59      2.89         0.79
  WS02006232WS02006231        1.58      1.58      1.68      0.01         0.11
  WS02006234WS02006232        1.59      1.59      1.68      0.01         0.01
  WS02006235WS02006234        1.58      1.58      1.60      2.47         0.77
  WS02006238WS02006235        1.61      1.61      1.64      0.01         0.27
  WS02006239WS02006238        1.61      1.61      1.62      0.67         0.03
  WS02006240WS02006239        1.57      1.58      1.58      0.65         0.01
  WS02006242WS02006240        1.57      1.57      1.62      1.05         0.73
  WS02006243WS02006242        1.57      1.57      1.60      0.01         0.01
  WS02006245WS02006243        1.54      1.54      1.56      0.01         0.01
  WS02006247WS02006245        1.53      1.54      1.53      2.03         0.51
  WS02006248WS02006247        1.49      1.49      1.53      0.01         0.01
  WS02006249WS02006248        1.48      1.48      1.50      1.05         0.01
  WS02006251WS02006249        1.47      1.47      1.50      0.96         0.94
  WS02006252WS02006251        1.35      1.36      1.40      0.01         0.01
  WS02006253WS02006251        1.47      1.47      1.48      0.61         0.01
  WS02006256WS02006235        2.79      2.80      7.39      0.69         0.01
  WS02006280WS02006229        0.61      0.61      0.75      0.01         0.01
  WS02006284WS02006280        0.51      0.51      0.59      0.01         0.01
  WS02006287WS02006284        0.43      0.43      0.52      0.17         0.17
  YS02001580YS02001583        0.41      0.41      0.45      0.01         0.01
  YS02001583YS02001586        0.42      0.42      0.53      0.01         0.01
  YS02001586YS02001590        0.53      0.53      0.59      0.01         0.01
  YS02001590YS02001593        0.60      0.60      0.61      0.64         0.01
  YS02001593YS02001596        0.61      0.61      0.70      0.01         0.01
  YS02001596YS02001600        0.74      0.74      0.83      0.01         0.01
  YS02001600YS02001601        0.90      0.90      1.23      0.01         0.01
  YS02001601YS02001602        1.09      1.09      1.28      0.86         0.01
  YS02001602YS02001605        1.03      1.03      1.09      2.06         0.01
  YS02001605YS02001607        0.98      1.03      0.98      1.18         0.98
  YS02001607YS02001610        0.53      0.53      0.56      0.01         0.01
  YS02001610YS02001613        0.52      0.52      0.56      0.01         0.01
  YS02001613YS02001616        0.48      0.48      0.52      0.01         0.01
  YS02001616YS02001619        0.47      0.47      0.48      0.01         0.01
  YS02001619YS02001622        0.46      0.47      0.46      0.63         0.44
  YS02001622YS02001625        0.46      0.46      0.64      0.01         0.01
  YS02001625YS02001629        0.37      0.37      0.64      0.01         0.01
  YS02001629YS02163301        0.62      0.62      0.63      0.31         0.31
  YS02001633YS02163601        0.65      0.65      0.68      0.43         0.43
  YS02001641YS02001644        0.48      0.54      0.48      1.32         0.48
  YS02001644YS02001647        0.26      0.26      0.48      0.04         0.01
  YS02001647YS02001649        0.27      0.27      0.30      0.01         0.01
  YS02001649YS02001757        0.28      0.30      0.28      0.35         0.25
  YS02001652YS02001649        0.21      0.21      0.30      0.01         0.01
  YS02001655YS02001652        0.13      0.13      0.19      0.01         0.01
  YS02001658YS02001655        0.04      0.04      0.13      0.01         0.01
  YS02001661YS02001658        0.01      0.01      0.04      0.01         0.01
  YS02001664YS02001661        0.01      0.01      0.01      0.01         0.01
  YS02001745YS02001748        0.01      0.01      0.01      0.01         0.01
  YS02001748YS02001751        0.03      0.03      0.08      0.01         0.01
  YS02001751YS02001754        0.08      0.08      0.13      0.01         0.01
  YS02001754YS02001757        0.14      0.14      0.28      0.01         0.01
  YS02001757CaochengTiaoxuchi        0.01      0.28      0.36      0.37         0.01
  YS02001759YS02001757        0.24      0.24      0.28      0.01         0.01
  YS02001762YS02001759        0.22      0.22      0.24      0.01         0.02
  YS02001765YS02001762        0.21      0.21      0.22      0.01         0.01
  YS02001767YS02001765        0.20      0.20      0.21      0.01         0.02
  YS02001770YS02001767        0.20      0.20      0.20      0.45         0.19
  YS02001774YS02001770        0.19      0.19      0.22      0.01         0.01
  YS02001779YS02001774        0.15      0.15      0.22      0.01         0.01
  YS02001783YS02001784        0.38      0.41      0.38      0.53         0.38
  YS02001784YS02001785        0.29      0.38      0.29      0.74         0.29
  YS02001786YS02001788        0.01      0.29      0.01      0.62         0.01
  YS02001790YS02001791        0.01      0.01      0.01      0.37         0.01
  YS02001793JiankangQianchi        0.01      0.01      0.11      0.01         0.01
  YS02001882YS02001884        0.36      0.36      0.37      0.01         0.01
  YS02001884YS02001887        0.39      0.39      0.40      0.01         0.01
  YS02001887YS02001890        0.41      0.41      0.42      0.01         0.01
  YS02001890YS02001895        0.35      0.35      0.44      0.01         0.01
  YS02001895YS02001898        0.34      0.34      0.35      0.01         0.01
  YS02001898YS02001901        0.35      0.35      0.39      0.01         0.01
  YS02001901YS02001904        0.38      0.38      0.39      0.01         0.01
  YS02001904YS02001907        0.38      0.38      0.61      0.01         0.01
  YS02001907YS02006553        0.74      0.74      0.80      0.01         0.01
  YS02001910YS02001907        0.44      0.44      0.59      0.01         0.01
  YS02001915YS02001910        0.36      0.36      0.44      0.01         0.01
  YS02001918YS02001915        0.28      0.28      0.36      0.01         0.01
  YS02001920YS02001918        0.28      0.28      0.29      0.01         0.01
  YS02001923YS02001920        0.23      0.23      0.29      0.01         0.01
  YS02001926YS02001923        0.01      0.01      0.01      0.01         0.01
  YS02001929YS02001926        0.01      0.01      0.01      0.01         0.01
  YS02006553YS02006556        0.51      0.51      0.60      0.01         0.01
  YS02006556YS02006558        0.56      0.56      0.61      0.01         0.01
  YS02006558YS02006561        0.31      0.50      0.31      0.69         0.31
  YS02006561YS02001783        0.25      0.25      0.41      0.01         0.01
  YS02163301YS02001633        0.63      0.63      0.67      0.01         0.01
  YS02163601YS02164001        0.56      0.56      0.68      0.26         0.01
  YS02164001YS02001641        0.54      0.56      0.54      0.67         0.48
  YSB1154YSB6556              0.55      0.55      0.67      0.01         0.01
  YSB1171HS02004479           0.45      0.45      0.68      0.01         0.01
  YSB1174YSB1171              0.60      0.60      0.91      0.01         0.01
  YSB6556YSB1171              0.55      0.55      1.07      0.01         0.01
  
  
  ***************
  Pumping Summary
  ***************
  
  ---------------------------------------------------------------------------------------------------------
                                                  Min       Avg       Max     Total     Power    % Time Off
                        Percent   Number of      Flow      Flow      Flow    Volume     Usage    Pump Curve
  Pump                 Utilized   Start-Ups       LPS       LPS       LPS  10^6 ltr     Kw-hr    Low   High
  ---------------------------------------------------------------------------------------------------------
  CC-R1                   44.79           9      0.00    589.07    683.00     6.098    101.29    0.0   89.9
  CC-R2                   80.21           8      0.00    266.06    683.00     3.657     58.81    0.0  100.0
  CC-S1                   22.92           3      0.00    196.14    200.00     1.298      9.94    0.0   26.3
  CC-S2                   58.33          10      0.00     73.72    200.00     0.647      4.83    0.0   92.8
  JK-R1                   83.33           9      0.00    116.53   1000.00     2.227      6.27    0.0    0.0
  JK-R2                   41.67           9      0.00    183.51   1000.00     1.917      4.51    0.0    0.0
  JK-S                    40.62          12      0.00    102.19    300.00     1.065     23.79    0.0    0.0
  XR-1                    97.91           1      0.00     95.00     95.00     2.679      9.64    0.0    0.0
  XR-2                    93.95           1      0.00     95.00     95.00     2.570      8.80    0.0    0.0
  XR-3                     0.00           0      0.00      0.00      0.00     0.000      0.00    0.0    0.0
  XR-4                     0.00           0      0.00      0.00      0.00     0.000      0.00    0.0    0.0
  

  Analysis begun on:  Thu Jun 15 06:46:34 2023
  Analysis ended on:  Thu Jun 15 06:46:37 2023
  Total elapsed time: 00:00:03