
  OWA STORM WATER MANAGEMENT MODEL - VERSION v5.2.3 (OWA 2023-03-28)
  ------------------------------------------------------------

  WARNING 04: minimum elevation drop used for Conduit WS02004404WS02004405
  WARNING 03: negative offset ignored for Link YS02001904YS02001907
  
  ****************
  Analysis Options
  ****************
  Flow Units ............... LPS
  Process Models:
    Rainfall/Runoff ........ YES
    RDII ................... NO
    Snowmelt ............... NO
    Groundwater ............ NO
    Flow Routing ........... YES
    Ponding Allowed ........ NO
    Water Quality .......... NO
  Infiltration Method ...... HORTON
  Flow Routing Method ...... DYNWAVE
  Surcharge Method ......... EXTRAN
  Starting Date ............ 08/28/2015 08:00:00
  Ending Date .............. 08/28/2015 16:00:00
  Antecedent Dry Days ...... 8.0
  Report Time Step ......... 00:01:00
  Wet Time Step ............ 00:01:00
  Dry Time Step ............ 00:01:00
  Routing Time Step ........ 30.00 sec
  Variable Time Step ....... YES
  Maximum Trials ........... 8
  Number of Threads ........ 1
  Head Tolerance ........... 0.001500 m
  
  
  **************************        Volume         Depth
  Runoff Quantity Continuity     hectare-m            mm
  **************************     ---------       -------
  Total Precipitation ......         3.611        59.602
  Evaporation Loss .........         0.000         0.000
  Infiltration Loss ........         0.245         4.045
  Surface Runoff ...........         3.305        54.560
  Final Storage ............         0.061         1.008
  Continuity Error (%) .....        -0.017
  
  
  **************************        Volume        Volume
  Flow Routing Continuity        hectare-m      10^6 ltr
  **************************     ---------     ---------
  Dry Weather Inflow .......         0.630         6.296
  Wet Weather Inflow .......         3.305        33.049
  Groundwater Inflow .......         0.000         0.000
  RDII Inflow ..............         0.000         0.000
  External Inflow ..........         0.105         1.045
  External Outflow .........         3.012        30.118
  Flooding Loss ............         1.328        13.281
  Evaporation Loss .........         0.000         0.000
  Exfiltration Loss ........         0.000         0.000
  Initial Stored Volume ....         0.303         3.031
  Final Stored Volume ......         0.177         1.772
  Continuity Error (%) .....        -4.030
  
  
  *************************
  Highest Continuity Errors
  *************************
  Node JK-storage (-30.91%)
  Node YS02001884 (4.77%)
  Node YS02001583 (-4.31%)
  Node CC-storage (-2.44%)
  Node HS02004842 (1.69%)
  
  
  ***************************
  Time-Step Critical Elements
  ***************************
  Link WS02006252WS02006251 (61.80%)
  Link WS02006280WS02006229 (14.14%)
  Link YS02001793JiankangQianchi (7.47%)
  Link WS02006238WS02006235 (5.09%)
  Link WS02003066WSF200 (3.65%)
  
  
  ********************************
  Highest Flow Instability Indexes
  ********************************
  Link WS02006113WS02006111 (37)
  Link WS02006111WS02006112 (21)
  Link WS02006238WS02006235 (13)
  Link WS02006252WS02006251 (13)
  Link WS02004404WS02004405 (12)
  
  
  *********************************
  Most Frequent Nonconverging Nodes
  *********************************
  Node CC-1 (7.14%)
  Node CC-2 (7.14%)
  Node JK-1 (7.14%)
  Node JK-2 (7.14%)
  Node WSC (7.14%)
  
  
  *************************
  Routing Time Step Summary
  *************************
  Minimum Time Step           :     0.00 sec
  Average Time Step           :     1.45 sec
  Maximum Time Step           :    30.00 sec
  % of Time in Steady State   :     0.00
  Average Iterations per Step :     2.82
  % of Steps Not Converging   :     7.14
  Time Step Frequencies       :
     30.000 - 13.228 sec      :     0.01 %
     13.228 -  5.833 sec      :     1.17 %
      5.833 -  2.572 sec      :    11.98 %
      2.572 -  1.134 sec      :    24.43 %
      1.134 -  0.500 sec      :    62.41 %
  
  
  ***************************
  Subcatchment Runoff Summary
  ***************************
  
  ------------------------------------------------------------------------------------------------------------------------------
                            Total      Total      Total      Total     Imperv       Perv      Total       Total     Peak  Runoff
                           Precip      Runon       Evap      Infil     Runoff     Runoff     Runoff      Runoff   Runoff   Coeff
  Subcatchment                 mm         mm         mm         mm         mm         mm         mm    10^6 ltr      LPS
  ------------------------------------------------------------------------------------------------------------------------------
  sub0                      59.60       0.00       0.00       1.00      54.18       3.17      57.35        0.05    31.42   0.962
  sub1                      59.60       0.00       0.00       1.72      51.80       4.84      56.63        0.38   221.36   0.950
  sub10                     59.60       0.00       0.00       1.21      53.55       3.56      57.11        0.63   375.79   0.958
  sub11                     59.60       0.00       0.00       1.19      53.57       3.58      57.15        0.66   413.72   0.959
  sub12                     59.60       0.00       0.00       1.93      50.68       5.82      56.49        0.49   327.76   0.948
  sub14                     59.60       0.00       0.00       1.36      52.98       4.01      56.99        0.54   331.49   0.956
  sub15                     59.60       0.00       0.00       5.39      40.75      12.49      53.24        0.92   526.75   0.893
  sub16                     59.60       0.00       0.00       5.56      39.02      14.12      53.14        0.56   350.00   0.892
  sub17                     59.60       0.00       0.00       5.42      39.60      13.66      53.26        0.46   284.61   0.894
  sub2                      59.60       0.00       0.00       7.71      36.64      14.35      50.99        0.48   237.35   0.856
  sub22                     59.60       0.00       0.00       8.18      33.19      17.45      50.64        3.20  1784.67   0.850
  sub23                     59.60       0.00       0.00       6.66      36.69      15.39      52.08        2.48  1461.39   0.874
  sub3                      59.60       0.00       0.00       8.35      36.60      13.70      50.30        1.13   516.88   0.844
  sub4                      59.60       0.00       0.00       1.94      51.63       4.62      56.25        1.17   563.38   0.944
  sub5                      59.60       0.00       0.00       1.05      54.12       3.12      57.24        0.65   380.70   0.960
  sub60                     59.60       0.00       0.00       1.82      51.24       5.33      56.57        0.74   469.09   0.949
  sub61                     59.60       0.00       0.00       2.65      48.34       7.48      55.82        1.02   652.37   0.937
  sub62                     59.60       0.00       0.00       1.21      53.54       3.55      57.10        1.56   922.67   0.958
  sub63                     59.60       0.00       0.00       4.93      41.35      12.35      53.70        1.22   746.67   0.901
  sub64                     59.60       0.00       0.00       2.49      49.45       6.45      55.91        1.34   759.52   0.938
  sub65                     59.60       0.00       0.00       2.15      50.60       5.60      56.19        1.55   851.38   0.943
  sub66                     59.60       0.00       0.00       6.13      41.24      11.16      52.40        2.44  1156.30   0.879
  sub67                     59.60       0.00       0.00       1.16      53.59       3.61      57.19        1.06   696.91   0.960
  sub68                     59.60       0.00       0.00       2.20      50.07       6.15      56.22        1.55   945.55   0.943
  sub69                     59.60       0.00       0.00       1.98      50.55       6.96      57.50        2.13  1132.86   0.965
  sub7                      59.60       0.00       0.00       1.34      52.99       4.03      57.02        0.19   122.02   0.957
  sub70                     59.60       0.00       0.00       6.62      39.17      13.65      52.82        1.53   651.20   0.886
  sub71                     59.60       0.00       0.00       1.25      53.50       3.52      57.02        1.49   819.85   0.957
  sub72                     59.60       0.00       0.00       1.12      54.02       3.06      57.08        0.78   403.84   0.958
  sub8                      59.60       0.00       0.00       1.35      52.98       4.01      57.00        0.36   225.04   0.956
  sub9                      59.60       0.00       0.00       1.36      52.98       4.01      56.99        0.27   168.35   0.956
  
  
  ******************
  Node Depth Summary
  ******************
  
  ---------------------------------------------------------------------------------
                                 Average  Maximum  Maximum  Time of Max    Reported
                                   Depth    Depth      HGL   Occurrence   Max Depth
  Node                 Type       Meters   Meters   Meters  days hr:min      Meters
  ---------------------------------------------------------------------------------
  HS02004478           JUNCTION     0.17     1.67    10.90     0  02:29        1.58
  HS02004479           JUNCTION     0.24     1.76    10.97     0  02:29        1.76
  HS02004480           JUNCTION     0.21     1.69    10.94     0  02:29        1.64
  HS02004770           JUNCTION     0.22     1.42    11.25     0  02:14        1.42
  HS02004777           JUNCTION     0.24     1.48    11.28     0  02:14        1.47
  HS02004785           JUNCTION     0.14     1.49    11.39     0  02:14        1.37
  HS02004788           JUNCTION     0.11     1.42    11.32     0  02:14        1.42
  HS02004792           JUNCTION     0.15     1.60    11.12     0  02:14        1.60
  HS02004799           JUNCTION     0.26     1.76    10.97     0  02:17        1.76
  HS02004802           JUNCTION     0.27     1.86    10.99     0  02:29        1.79
  HS02004807           JUNCTION     0.24     1.92    11.09     0  02:17        1.92
  HS02004817           JUNCTION     0.54     2.44    11.29     0  02:17        2.34
  HS02004824           JUNCTION     0.12     2.01    11.41     0  02:17        1.89
  HS02004830           JUNCTION     0.13     2.03    11.50     0  02:17        1.83
  HS02004837           JUNCTION     0.10     2.04    11.62     0  02:17        1.75
  HS02004842           JUNCTION     0.39     2.22    11.49     0  02:17        2.06
  HS02004848           JUNCTION     0.08     2.07    11.67     0  02:17        1.74
  HS02004852           JUNCTION     0.09     2.12    11.63     0  02:17        1.80
  HS02004856           JUNCTION     0.15     2.07    11.50     0  02:17        1.84
  HS02004862           JUNCTION     0.10     2.00    11.38     0  02:17        1.83
  HS02004870           JUNCTION     0.09     2.10    11.38     0  02:17        1.81
  HS02004876           JUNCTION     0.13     2.18    11.21     0  02:17        1.90
  HS02004881           JUNCTION     0.08     1.87    10.90     0  02:17        1.66
  HS02004901           JUNCTION     0.23     1.42    11.24     0  02:13        1.42
  WS02001211           JUNCTION     0.62     0.81     5.65     0  02:28        0.81
  WS02001212           JUNCTION     0.37     0.57     5.64     0  02:27        0.57
  WS02001213           JUNCTION     0.59     0.87     5.63     0  02:27        0.87
  WS02003059           JUNCTION     0.66     0.94     5.62     0  02:27        0.94
  WS02003060           JUNCTION     0.39     0.69     5.62     0  02:26        0.69
  WS02003066           JUNCTION     0.24     0.46     6.01     0  02:25        0.45
  WS02003067           JUNCTION     0.57     0.89     6.21     0  02:24        0.89
  WS02003069           JUNCTION     0.44     0.78     5.36     0  02:27        0.78
  WS02003072           JUNCTION     0.50     0.81     5.18     0  02:27        0.81
  WS02003073           JUNCTION     0.30     0.51     4.58     0  02:28        0.51
  WS02004138           JUNCTION     0.13     0.14     7.39     0  00:31        0.14
  WS02004139           JUNCTION     0.56     0.74     5.65     0  02:28        0.74
  WS02004401           JUNCTION     0.78     1.85     7.85     0  02:24        1.85
  WS02004402           JUNCTION     0.80     1.80     7.76     0  02:24        1.79
  WS02004403           JUNCTION     0.81     1.72     7.65     0  02:25        1.72
  WS02004404           JUNCTION     0.88     1.75     7.60     0  02:29        1.75
  WS02004405           JUNCTION     0.87     1.68     7.53     0  02:25        1.67
  WS02004406           JUNCTION     0.86     1.57     7.40     0  02:24        1.56
  WS02004407           JUNCTION     0.27     0.93     7.24     0  02:25        0.92
  WS02004409           JUNCTION     0.55     1.45     7.22     0  02:29        1.45
  WS02004410           JUNCTION     0.56     1.53     7.25     0  02:29        1.53
  WS02004411           JUNCTION     0.57     1.20     6.88     0  02:25        1.20
  WS02004412           JUNCTION     0.57     1.11     6.75     0  02:25        1.10
  WS02004413           JUNCTION     0.71     1.15     6.62     0  02:25        1.14
  WS02006109           JUNCTION     0.95     2.64     9.26     0  02:14        2.64
  WS02006110           JUNCTION     0.90     2.40     8.99     0  02:21        2.40
  WS02006111           JUNCTION     0.38     1.73     8.44     0  02:21        1.73
  WS02006112           JUNCTION     0.98     2.68     8.56     0  00:00        2.43
  WS02006113           JUNCTION     0.47     1.98     8.88     0  02:29        1.98
  WS02006115           JUNCTION     0.69     1.95     8.09     0  02:25        1.95
  WS02006116           JUNCTION     0.76     1.94     7.98     0  02:24        1.94
  WS02006228           JUNCTION     0.99     3.03     9.68     0  02:29        3.02
  WS02006229           JUNCTION     0.98     3.25     9.94     0  02:29        3.21
  WS02006230           JUNCTION     0.93     2.65     9.39     0  02:09        2.65
  WS02006231           JUNCTION     0.67     2.24     9.36     0  02:29        2.24
  WS02006232           JUNCTION     0.78     2.18     9.22     0  02:09        2.18
  WS02006234           JUNCTION     0.67     1.96     9.12     0  02:06        1.96
  WS02006235           JUNCTION     0.69     2.00     9.16     0  02:47        2.00
  WS02006238           JUNCTION     0.71     1.97     9.12     0  02:45        1.93
  WS02006239           JUNCTION     0.66     1.86     9.07     0  02:21        1.86
  WS02006240           JUNCTION     0.61     1.77     9.06     0  02:21        1.77
  WS02006242           JUNCTION     0.66     1.55     8.82     0  01:46        1.55
  WS02006243           JUNCTION     0.54     1.48     8.90     0  01:46        1.38
  WS02006245           JUNCTION     0.52     1.56     9.05     0  01:46        1.27
  WS02006247           JUNCTION     0.53     1.47     8.97     0  01:46        1.32
  WS02006248           JUNCTION     0.48     1.10     8.69     0  01:46        1.10
  WS02006249           JUNCTION     0.50     1.09     8.69     0  01:46        1.09
  WS02006251           JUNCTION     0.55     2.18     9.85     0  02:17        2.12
  WS02006252           JUNCTION     0.39     1.50     9.74     0  02:10        1.50
  WS02006253           JUNCTION     0.61     3.04    10.68     0  02:17        2.95
  WS02006256           JUNCTION     0.99     2.35     9.28     0  00:11        2.35
  WS02006280           JUNCTION     0.23     1.80    10.07     0  02:29        1.74
  WS02006284           JUNCTION     0.49     2.04    10.44     0  02:29        1.94
  WS02006287           JUNCTION     0.23     1.84    10.79     0  02:29        1.73
  WSF200               JUNCTION     0.24     0.52     5.75     0  02:26        0.52
  YS02001580           JUNCTION     0.06     1.05     9.59     0  02:12        0.77
  YS02001583           JUNCTION     0.09     1.14     9.64     0  02:12        0.81
  YS02001586           JUNCTION     0.15     1.13     9.30     0  02:12        1.13
  YS02001590           JUNCTION     0.24     1.40     9.26     0  02:12        1.38
  YS02001593           JUNCTION     0.17     1.34     9.20     0  02:29        1.34
  YS02001596           JUNCTION     0.23     1.69     9.11     0  02:12        1.66
  YS02001600           JUNCTION     0.30     1.87     9.00     0  02:12        1.87
  YS02001601           JUNCTION     0.49     2.06     8.90     0  02:11        2.06
  YS02001602           JUNCTION     0.41     1.87     8.77     0  02:16        1.87
  YS02001605           JUNCTION     0.39     1.78     8.68     0  02:29        1.78
  YS02001607           JUNCTION     0.39     1.66     8.51     0  02:40        1.66
  YS02001610           JUNCTION     0.43     1.68     8.48     0  02:17        1.68
  YS02001613           JUNCTION     0.39     1.68     8.52     0  02:29        1.66
  YS02001616           JUNCTION     0.33     1.61     8.52     0  02:21        1.61
  YS02001619           JUNCTION     0.30     1.61     8.54     0  02:21        1.61
  YS02001622           JUNCTION     0.29     1.60     8.50     0  02:29        1.57
  YS02001625           JUNCTION     0.56     1.78     8.38     0  02:17        1.78
  YS02001629           JUNCTION     0.45     1.85     8.40     0  02:20        1.85
  YS02001633           JUNCTION     0.53     2.08     8.53     0  02:21        2.08
  YS02001641           JUNCTION     0.51     2.10     8.54     0  02:21        2.10
  YS02001644           JUNCTION     0.51     1.92     8.35     0  02:21        1.92
  YS02001647           JUNCTION     0.32     1.72     8.33     0  02:23        1.70
  YS02001649           JUNCTION     0.41     1.89     8.28     0  02:23        1.88
  YS02001652           JUNCTION     0.28     1.71     8.30     0  02:23        1.70
  YS02001655           JUNCTION     0.18     1.48     8.33     0  02:24        1.47
  YS02001658           JUNCTION     0.09     1.25     8.40     0  02:22        1.22
  YS02001661           JUNCTION     0.12     0.98     8.38     0  02:24        0.98
  YS02001664           JUNCTION     0.04     0.35     8.28     0  02:24        0.34
  YS02001745           JUNCTION     0.04     0.70     8.22     0  02:23        0.68
  YS02001748           JUNCTION     0.10     1.41     8.49     0  02:23        1.10
  YS02001751           JUNCTION     0.15     1.47     8.35     0  02:23        1.29
  YS02001754           JUNCTION     0.26     1.65     8.25     0  02:23        1.54
  YS02001757           JUNCTION     0.46     1.92     8.18     0  02:23        1.88
  YS02001759           JUNCTION     0.40     1.90     8.26     0  02:23        1.88
  YS02001762           JUNCTION     0.38     1.90     8.30     0  02:23        1.87
  YS02001765           JUNCTION     0.35     1.88     8.33     0  02:23        1.87
  YS02001767           JUNCTION     0.34     1.90     8.39     0  02:22        1.90
  YS02001770           JUNCTION     0.35     1.95     8.45     0  02:22        1.95
  YS02001774           JUNCTION     0.41     2.05     8.47     0  02:22        2.05
  YS02001779           JUNCTION     0.23     1.68     8.37     0  02:22        1.68
  YS02001783           JUNCTION     0.20     1.53     7.67     0  02:29        1.34
  YS02001784           JUNCTION     0.22     1.30     7.37     0  02:29        1.26
  YS02001786           JUNCTION     0.19     1.08     7.11     0  02:35        1.08
  YS02001788           JUNCTION     0.13     0.91     6.89     0  02:35        0.91
  YS02001790           JUNCTION     0.16     1.06     6.70     0  02:34        1.05
  YS02001791           JUNCTION     0.10     1.00     6.47     0  02:34        1.00
  YS02001793           JUNCTION     0.08     1.51     6.35     0  02:34        1.51
  YS02001882           JUNCTION     0.25     1.83     8.55     0  02:21        1.83
  YS02001884           JUNCTION     0.34     1.93     8.55     0  02:29        1.85
  YS02001887           JUNCTION     0.41     1.92     8.46     0  02:29        1.90
  YS02001890           JUNCTION     0.44     1.81     8.32     0  02:17        1.81
  YS02001895           JUNCTION     0.22     1.63     8.37     0  02:29        1.56
  YS02001898           JUNCTION     0.23     1.68     8.42     0  02:29        1.60
  YS02001901           JUNCTION     0.34     1.79     8.40     0  02:21        1.79
  YS02001904           JUNCTION     0.32     1.72     8.35     0  02:21        1.72
  YS02001907           JUNCTION     0.63     1.96     8.25     0  02:18        1.96
  YS02001910           JUNCTION     0.43     2.07     8.57     0  02:21        2.07
  YS02001915           JUNCTION     0.25     1.98     8.70     0  02:21        1.98
  YS02001918           JUNCTION     0.12     1.81     8.88     0  02:19        1.81
  YS02001920           JUNCTION     0.20     2.13     9.13     0  02:19        2.13
  YS02001923           JUNCTION     0.09     2.03     9.29     0  02:19        2.03
  YS02001926           JUNCTION     0.13     1.90     9.35     0  02:18        1.90
  YS02001929           JUNCTION     0.06     1.78     9.47     0  02:18        1.75
  YS02006553           JUNCTION     0.64     2.10     8.38     0  02:21        2.10
  YS02006556           JUNCTION     0.61     2.15     8.46     0  02:21        2.15
  YS02006558           JUNCTION     0.65     2.19     8.46     0  02:21        2.19
  YS02006561           JUNCTION     0.12     1.24     7.90     0  02:29        0.97
  YS02163301           JUNCTION     0.47     1.92     8.44     0  02:20        1.90
  YS02163601           JUNCTION     0.57     2.08     8.48     0  02:21        2.08
  YS02164001           JUNCTION     0.50     2.10     8.56     0  02:21        2.10
  YSB1154              JUNCTION     0.37     2.10    11.16     0  02:21        2.10
  YSB1171              JUNCTION     0.52     1.95    10.85     0  02:14        1.95
  YSB1174              JUNCTION     0.33     1.95    11.06     0  02:29        1.83
  YSB6556              JUNCTION     0.27     1.80    10.97     0  02:21        1.80
  CC-1                 OUTFALL      0.00     0.00     0.00     0  00:00        0.00
  CC-2                 OUTFALL      0.00     0.00     0.00     0  00:00        0.00
  JK-1                 OUTFALL      0.00     0.00     0.00     0  00:00        0.00
  JK-2                 OUTFALL      0.00     0.00     0.00     0  00:00        0.00
  WSC                  OUTFALL      0.30     0.51     1.18     0  02:28        0.51
  CC-storage           STORAGE      0.81     1.95     7.45     0  03:15        1.95
  JK-storage           STORAGE      0.22     5.51     6.31     0  02:35        5.51
  XR-storage           STORAGE      7.91     9.26     7.26     0  08:00        9.26
  
  
  *******************
  Node Inflow Summary
  *******************
  
  -------------------------------------------------------------------------------------------------
                                  Maximum  Maximum                  Lateral       Total        Flow
                                  Lateral    Total  Time of Max      Inflow      Inflow     Balance
                                   Inflow   Inflow   Occurrence      Volume      Volume       Error
  Node                 Type           LPS      LPS  days hr:min    10^6 ltr    10^6 ltr     Percent
  -------------------------------------------------------------------------------------------------
  HS02004478           JUNCTION      0.00  2304.87     0  02:24           0        8.49      -0.006
  HS02004479           JUNCTION      0.00   383.99     0  02:18           0       0.842       0.088
  HS02004480           JUNCTION      0.00  2060.56     0  02:17           0        6.39       0.040
  HS02004770           JUNCTION   1461.39  1461.39     0  02:25        2.48        2.73       0.107
  HS02004777           JUNCTION      0.03   690.59     0  02:14    0.000864        1.89       0.272
  HS02004785           JUNCTION      0.15   706.13     0  02:13     0.00432        1.89       0.018
  HS02004788           JUNCTION    528.42   852.30     0  02:14       0.964        2.86       0.010
  HS02004792           JUNCTION   1784.95  2581.14     0  02:25        3.21        6.06       0.004
  HS02004799           JUNCTION    331.49  1720.81     0  02:15       0.542        5.68       0.048
  HS02004802           JUNCTION      0.00  1231.61     0  02:26           0         2.2       0.179
  HS02004807           JUNCTION    413.72  1288.64     0  02:25       0.664        2.25       0.191
  HS02004817           JUNCTION      0.60   884.02     0  02:25      0.0173        1.64       1.045
  HS02004824           JUNCTION    563.43   883.61     0  02:25        1.17        1.85       0.043
  HS02004830           JUNCTION      0.15   559.42     0  02:15     0.00432       0.893       0.148
  HS02004837           JUNCTION    382.14   750.67     0  02:17       0.813        1.24       0.071
  HS02004842           JUNCTION      0.00   753.76     0  02:17           0       0.785       1.718
  HS02004848           JUNCTION    516.88  1005.38     0  02:17        1.13        1.75       0.010
  HS02004852           JUNCTION      0.00   991.97     0  02:17           0         1.6       0.003
  HS02004856           JUNCTION    168.35  1048.63     0  02:17       0.274        1.87       0.086
  HS02004862           JUNCTION    237.55  1107.80     0  02:17       0.481        2.35       0.035
  HS02004870           JUNCTION    225.04  1204.31     0  02:25       0.364        2.72       0.029
  HS02004876           JUNCTION    221.36  1426.71     0  02:25       0.377        3.09       0.032
  HS02004881           JUNCTION    122.02  1548.92     0  02:25       0.192        3.28       0.015
  HS02004901           JUNCTION    350.00   614.19     0  02:25       0.556       0.865       0.201
  WS02001211           JUNCTION      7.35   204.17     0  02:59       0.212        5.44       0.612
  WS02001212           JUNCTION      0.00   211.46     0  02:59           0        5.41       0.289
  WS02001213           JUNCTION      0.00   216.36     0  02:59           0        5.39       0.333
  WS02003059           JUNCTION      0.00   221.56     0  02:58           0        5.38       0.595
  WS02003060           JUNCTION     16.53  1503.23     0  02:26       0.476        15.4       0.096
  WS02003066           JUNCTION      0.00  1301.02     0  02:25           0        9.56       0.015
  WS02003067           JUNCTION      0.00  1300.83     0  02:26           0        9.56       0.045
  WS02003069           JUNCTION      0.32  1503.51     0  02:26     0.00922        15.4       0.099
  WS02003072           JUNCTION      0.00  1503.31     0  02:27           0        15.4       0.135
  WS02003073           JUNCTION      1.82  1505.32     0  02:27      0.0524        15.4       0.141
  WS02004138           JUNCTION      0.00   190.00     0  00:29           0        5.25       0.053
  WS02004139           JUNCTION      0.32   190.32     0  00:31     0.00924        5.26       0.508
  WS02004401           JUNCTION      0.00  1301.20     0  02:25           0        9.67       0.117
  WS02004402           JUNCTION      0.00  1301.48     0  02:25           0        9.67       0.114
  WS02004403           JUNCTION      0.00  1302.22     0  02:25           0        9.66       0.113
  WS02004404           JUNCTION      0.16  1302.25     0  02:25     0.00467        9.65       0.093
  WS02004405           JUNCTION      0.04  1303.27     0  02:25      0.0011        9.64       0.132
  WS02004406           JUNCTION      0.00  1303.23     0  02:25           0        9.63       0.224
  WS02004407           JUNCTION      0.00  1302.78     0  02:25           0         9.6       0.014
  WS02004409           JUNCTION      0.00  1300.80     0  02:26           0         9.6       0.036
  WS02004410           JUNCTION      0.00  1300.56     0  02:25           0         9.6       0.049
  WS02004411           JUNCTION      0.00  1300.90     0  02:26           0        9.59       0.062
  WS02004412           JUNCTION      0.00  1300.92     0  02:25           0        9.58       0.083
  WS02004413           JUNCTION      0.00  1301.16     0  02:25           0        9.58       0.146
  WS02006109           JUNCTION      1.23  1308.01     0  00:00      0.0354        9.42       0.113
  WS02006110           JUNCTION      0.00  1124.12     0  02:38           0        9.17      -0.386
  WS02006111           JUNCTION      0.00  1176.04     0  00:00           0         9.2      -0.411
  WS02006112           JUNCTION    284.61  2307.30     0  00:00       0.457         9.7      -0.005
  WS02006113           JUNCTION      0.00  1123.92     0  02:38           0        9.16      -0.495
  WS02006115           JUNCTION      0.00  2152.75     0  00:00           0        9.68       0.043
  WS02006116           JUNCTION      0.00  1301.42     0  02:24           0        9.67       0.027
  WS02006228           JUNCTION      0.00  1288.73     0  02:25           0        9.37       0.061
  WS02006229           JUNCTION      0.00  2305.77     0  02:24           0        11.6       0.094
  WS02006230           JUNCTION     10.28  1026.10     0  02:25       0.296        5.33       0.097
  WS02006231           JUNCTION      0.00   454.36     0  02:47           0        4.17      -0.114
  WS02006232           JUNCTION      0.00   454.18     0  02:29           0        4.16       0.099
  WS02006234           JUNCTION      0.00   453.18     0  02:29           0        4.15      -0.041
  WS02006235           JUNCTION      0.00   416.61     0  02:25           0        4.14       0.059
  WS02006238           JUNCTION      0.00   416.78     0  02:21           0         3.7      -0.161
  WS02006239           JUNCTION      0.00   415.93     0  02:21           0        3.68      -0.247
  WS02006240           JUNCTION      0.00   415.27     0  02:21           0        3.67       0.015
  WS02006242           JUNCTION      0.00   415.47     0  02:20           0        3.66       0.042
  WS02006243           JUNCTION      0.00   378.13     0  05:24           0        3.29      -0.133
  WS02006245           JUNCTION      0.00   388.41     0  04:58           0         3.3       0.224
  WS02006247           JUNCTION      0.00   391.67     0  04:57           0         3.3       0.021
  WS02006248           JUNCTION      0.00   402.64     0  04:27           0        3.55      -0.070
  WS02006249           JUNCTION      0.00  1352.66     0  02:25           0        6.08       0.110
  WS02006251           JUNCTION      0.08  1581.85     0  02:25     0.00222        6.19       0.015
  WS02006252           JUNCTION      0.00   426.18     0  02:24           0        2.95      -0.321
  WS02006253           JUNCTION     31.42  1580.92     0  02:25      0.0465        3.37       0.006
  WS02006256           JUNCTION      0.00   300.00     0  01:35           0        1.03       0.084
  WS02006280           JUNCTION      0.00  2304.72     0  02:25           0        8.48       0.006
  WS02006284           JUNCTION      0.10  2304.81     0  02:24     0.00275        8.48      -0.002
  WS02006287           JUNCTION      0.00  2305.63     0  02:24           0        8.47       0.011
  WSF200               JUNCTION      0.00  1301.14     0  02:25           0        9.56       0.007
  YS02001580           JUNCTION      0.00    73.63     0  02:12           0     0.00404       1.507
  YS02001583           JUNCTION      0.00   118.25     0  02:11           0      0.0155      -4.135
  YS02001586           JUNCTION    651.20   651.23     0  02:26        1.53        1.54       0.067
  YS02001590           JUNCTION      0.00   318.01     0  02:30           0        1.28      -0.015
  YS02001593           JUNCTION      0.00   318.15     0  02:29           0        1.28       0.010
  YS02001596           JUNCTION      0.00   318.12     0  02:22           0        1.28      -0.010
  YS02001600           JUNCTION      0.00   318.06     0  02:27           0        1.28       0.004
  YS02001601           JUNCTION   1132.86  1450.46     0  02:26        2.13        3.41       0.027
  YS02001602           JUNCTION      0.00   491.52     0  02:11           0        2.28       0.025
  YS02001605           JUNCTION      0.00   491.82     0  02:11           0        2.19       0.033
  YS02001607           JUNCTION      0.00   492.06     0  02:11           0        2.19       0.087
  YS02001610           JUNCTION      0.00   603.31     0  02:26           0         2.3       0.108
  YS02001613           JUNCTION      0.00   493.52     0  02:11           0        1.94       0.091
  YS02001616           JUNCTION      0.00   495.29     0  02:11           0        1.94       0.019
  YS02001619           JUNCTION   1156.30  1156.30     0  02:26        2.44        4.26       0.000
  YS02001622           JUNCTION      0.00   935.33     0  02:17           0        4.15       0.003
  YS02001625           JUNCTION      0.00  1212.71     0  02:26           0        4.24       0.325
  YS02001629           JUNCTION      0.00   935.07     0  02:17           0        3.61      -0.052
  YS02001633           JUNCTION    851.58  1372.74     0  02:17        1.55        5.06       0.068
  YS02001641           JUNCTION      0.00  1373.65     0  02:17           0        4.95       0.055
  YS02001644           JUNCTION    759.56  1765.73     0  02:17        1.34        6.29       0.055
  YS02001647           JUNCTION      0.00  1766.05     0  02:17           0        6.18       0.003
  YS02001649           JUNCTION      0.00  2035.23     0  02:18           0         7.4       0.007
  YS02001652           JUNCTION      0.00   758.35     0  02:25           0        1.22      -0.080
  YS02001655           JUNCTION      0.15   757.88     0  02:25     0.00443        1.22       0.055
  YS02001658           JUNCTION      0.00   757.33     0  02:25           0        1.22      -0.040
  YS02001661           JUNCTION      0.00   753.61     0  02:25           0        1.22       0.005
  YS02001664           JUNCTION    746.67   746.67     0  02:25        1.22        1.22      -0.006
  YS02001745           JUNCTION    469.10   469.10     0  02:25       0.744       0.744       0.220
  YS02001748           JUNCTION      0.04   547.36     0  02:23      0.0013       0.745      -0.396
  YS02001751           JUNCTION      0.01   497.93     0  02:21    0.000317       0.749      -0.023
  YS02001754           JUNCTION      0.26   483.68     0  02:29     0.00749       0.756      -0.114
  YS02001757           JUNCTION      0.00  3505.45     0  02:25           0        10.7       0.019
  YS02001759           JUNCTION    652.41  1416.39     0  02:24        1.03        2.59       0.001
  YS02001762           JUNCTION      0.00   816.58     0  02:27           0        1.56       0.021
  YS02001765           JUNCTION      0.00   815.36     0  02:27           0        1.56       0.017
  YS02001767           JUNCTION      0.54   815.07     0  02:27      0.0154        1.56       0.012
  YS02001770           JUNCTION    922.83   922.83     0  02:25        1.57        1.62      -0.001
  YS02001774           JUNCTION      0.00   183.20     0  02:19           0       0.105       1.232
  YS02001779           JUNCTION      0.01   179.12     0  02:19    0.000144      0.0528      -0.034
  YS02001783           JUNCTION      0.00  1162.05     0  02:21           0        3.96       0.006
  YS02001784           JUNCTION      1.06  1164.62     0  02:21      0.0305        3.99       0.012
  YS02001786           JUNCTION      0.06  1169.50     0  02:29     0.00162        3.99       0.017
  YS02001788           JUNCTION      0.07  1176.19     0  02:29     0.00204        3.99       0.005
  YS02001790           JUNCTION      0.15  1193.98     0  02:35     0.00446           4       0.008
  YS02001791           JUNCTION      0.00  1352.46     0  02:35           0           4      -0.012
  YS02001793           JUNCTION      0.00  1416.10     0  02:35           0           4      -0.018
  YS02001882           JUNCTION      0.00    31.62     0  02:15           0      0.0131       5.278
  YS02001884           JUNCTION      0.00    40.70     0  02:14           0       0.049       5.013
  YS02001887           JUNCTION    697.36   697.36     0  02:25        1.08        1.11       0.412
  YS02001890           JUNCTION      0.00   697.32     0  02:25           0        1.07       0.482
  YS02001895           JUNCTION      0.00   516.54     0  02:27           0        1.02       0.158
  YS02001898           JUNCTION      0.00   516.54     0  02:27           0        1.02       0.035
  YS02001901           JUNCTION      0.00   516.66     0  02:28           0        1.02       0.318
  YS02001904           JUNCTION      0.00   516.61     0  02:27           0        1.03       0.289
  YS02001907           JUNCTION      0.00  1759.61     0  02:26           0        3.38       0.531
  YS02001910           JUNCTION      0.00  1244.08     0  02:25           0        2.36       0.305
  YS02001915           JUNCTION    819.87  1243.78     0  02:26        1.49        2.39       0.071
  YS02001918           JUNCTION      0.00   444.37     0  02:19           0       0.911       0.021
  YS02001920           JUNCTION      2.87   442.80     0  02:19      0.0827       0.899       0.098
  YS02001923           JUNCTION      0.04   420.21     0  02:25     0.00109       0.805      -0.022
  YS02001926           JUNCTION      0.05   419.05     0  02:25      0.0015       0.791      -0.030
  YS02001929           JUNCTION    403.84   403.84     0  02:26       0.785       0.785      -0.099
  YS02006553           JUNCTION      0.00   798.36     0  02:37           0        2.44       0.486
  YS02006556           JUNCTION      0.00   798.61     0  02:37           0        2.44       0.348
  YS02006558           JUNCTION    946.43  1180.15     0  02:29        1.57        3.99       0.090
  YS02006561           JUNCTION      0.00  1177.91     0  02:29           0        3.96      -0.004
  YS02163301           JUNCTION      0.00   934.33     0  02:17           0        3.61       0.041
  YS02163601           JUNCTION      0.11  1373.29     0  02:17     0.00317        4.95       0.096
  YS02164001           JUNCTION      0.00  1374.34     0  02:17           0        4.95       0.044
  YSB1154              JUNCTION    380.70   380.70     0  02:25       0.649       0.649       0.232
  YSB1171              JUNCTION      0.00   915.35     0  02:25           0        1.21       0.535
  YSB1174              JUNCTION    327.76   327.76     0  02:25       0.494       0.494       0.269
  YSB6556              JUNCTION      0.00   380.63     0  02:25           0        0.65       0.200
  CC-1                 OUTFALL       0.00   683.00     0  01:49           0        3.78       0.000
  CC-2                 OUTFALL       0.00   683.00     0  00:20           0        6.62       0.000
  JK-1                 OUTFALL       0.00  1000.00     0  00:05           0        2.52       0.000
  JK-2                 OUTFALL       0.00  1000.00     0  02:25           0        1.84       0.000
  WSC                  OUTFALL       0.00  1505.70     0  02:28           0        15.4       0.000
  CC-storage           STORAGE       0.00  3504.17     0  02:25           0          13      -2.382
  JK-storage           STORAGE       0.00  1707.08     0  02:35           0        4.15     -23.609
  XR-storage           STORAGE     200.00   200.00     0  00:00        5.76        6.36       0.001
  
  
  **********************
  Node Surcharge Summary
  **********************
  
  Surcharging occurs when water rises above the top of the highest conduit.
  ---------------------------------------------------------------------
                                               Max. Height   Min. Depth
                                   Hours       Above Crown    Below Rim
  Node                 Type      Surcharged         Meters       Meters
  ---------------------------------------------------------------------
  HS02004478           JUNCTION        0.45          0.754        0.186
  HS02004479           JUNCTION        0.58          0.965        0.085
  HS02004480           JUNCTION        0.62          0.985        0.115
  HS02004770           JUNCTION        0.52          0.720        0.000
  HS02004777           JUNCTION        0.53          0.780        0.000
  HS02004785           JUNCTION        0.48          0.790        0.000
  HS02004788           JUNCTION        0.47          0.720        0.000
  HS02004792           JUNCTION        0.59          0.900        0.000
  HS02004799           JUNCTION        0.73          1.060        0.000
  HS02004802           JUNCTION        0.64          1.153        0.057
  HS02004807           JUNCTION        0.61          1.220        0.000
  HS02004817           JUNCTION        1.21          1.740        0.000
  HS02004824           JUNCTION        0.47          1.310        0.000
  HS02004830           JUNCTION        0.44          1.330        0.000
  HS02004837           JUNCTION        0.41          1.340        0.000
  HS02004842           JUNCTION        0.54          1.520        0.000
  HS02004848           JUNCTION        0.36          1.370        0.000
  HS02004852           JUNCTION        0.38          1.420        0.000
  HS02004856           JUNCTION        0.36          1.300        0.000
  HS02004862           JUNCTION        0.40          1.300        0.000
  HS02004870           JUNCTION        0.42          1.398        0.002
  HS02004876           JUNCTION        0.47          1.483        0.077
  HS02004881           JUNCTION        0.45          1.169        0.281
  HS02004901           JUNCTION        0.53          0.720        0.000
  WS02004401           JUNCTION        1.57          0.851        0.809
  WS02004402           JUNCTION        1.59          0.800        0.940
  WS02004403           JUNCTION        1.60          0.719        1.311
  WS02004404           JUNCTION        1.71          0.753        2.027
  WS02004405           JUNCTION        1.69          0.683        2.117
  WS02004406           JUNCTION        1.67          0.568        1.882
  WS02004409           JUNCTION        1.03          0.446        1.914
  WS02004410           JUNCTION        0.95          0.531        2.009
  WS02004411           JUNCTION        0.86          0.205        2.325
  WS02004412           JUNCTION        0.76          0.106        2.204
  WS02004413           JUNCTION        1.30          0.146        2.054
  WS02006109           JUNCTION        2.15          1.820        0.000
  WS02006110           JUNCTION        1.85          1.491        0.359
  WS02006111           JUNCTION        1.28          0.921        0.949
  WS02006112           JUNCTION        1.93          1.680        0.000
  WS02006113           JUNCTION        1.29          1.184        0.746
  WS02006115           JUNCTION        1.43          0.943        1.307
  WS02006116           JUNCTION        1.44          0.884        1.406
  WS02006228           JUNCTION        2.14          2.200        0.000
  WS02006229           JUNCTION        0.90          1.070        0.000
  WS02006230           JUNCTION        1.70          1.570        0.000
  WS02006231           JUNCTION        1.75          1.530        0.000
  WS02006232           JUNCTION        1.97          1.480        0.000
  WS02006234           JUNCTION        1.81          1.240        0.000
  WS02006235           JUNCTION        1.86          1.290        0.000
  WS02006238           JUNCTION        1.88          1.251        0.179
  WS02006239           JUNCTION        1.80          1.117        0.173
  WS02006240           JUNCTION        1.76          1.056        0.334
  WS02006242           JUNCTION        1.80          0.820        0.000
  WS02006243           JUNCTION        1.70          0.770        0.000
  WS02006245           JUNCTION        1.67          0.850        0.000
  WS02006247           JUNCTION        1.67          0.760        0.000
  WS02006248           JUNCTION        1.62          0.380        0.000
  WS02006249           JUNCTION        1.64          0.390        0.000
  WS02006251           JUNCTION        1.39          1.153        0.027
  WS02006252           JUNCTION        1.71          1.100        0.000
  WS02006253           JUNCTION        1.39          2.000        0.480
  WS02006256           JUNCTION        5.55          2.050        0.000
  WS02006280           JUNCTION        0.75          0.750        0.030
  WS02006284           JUNCTION        0.66          0.762        0.038
  WS02006287           JUNCTION        0.55          0.839        0.051
  YS02001580           JUNCTION        0.56          0.450        0.000
  YS02001583           JUNCTION        0.57          0.500        0.000
  YS02001586           JUNCTION        0.68          0.510        0.000
  YS02001590           JUNCTION        0.77          0.750        0.000
  YS02001593           JUNCTION        0.77          0.718        0.122
  YS02001596           JUNCTION        0.91          0.957        0.113
  YS02001600           JUNCTION        1.08          1.190        0.000
  YS02001601           JUNCTION        1.58          1.440        0.000
  YS02001602           JUNCTION        1.47          1.270        0.000
  YS02001605           JUNCTION        1.42          1.180        0.000
  YS02001607           JUNCTION        0.76          0.660        0.020
  YS02001610           JUNCTION        0.79          0.680        0.000
  YS02001613           JUNCTION        0.75          0.675        0.025
  YS02001616           JUNCTION        0.69          0.610        0.000
  YS02001619           JUNCTION        0.67          0.610        0.000
  YS02001622           JUNCTION        0.67          0.596        0.024
  YS02001625           JUNCTION        0.94          0.780        0.000
  YS02001629           JUNCTION        0.58          0.470        0.000
  YS02001633           JUNCTION        1.16          1.060        0.000
  YS02001641           JUNCTION        1.14          1.100        0.000
  YS02001644           JUNCTION        1.12          0.920        0.000
  YS02001647           JUNCTION        0.45          0.715        0.185
  YS02001649           JUNCTION        1.04          0.892        0.158
  YS02001652           JUNCTION        0.35          0.677        0.453
  YS02001655           JUNCTION        0.23          0.484        0.716
  YS02001658           JUNCTION        0.12          0.255        1.045
  YS02001748           JUNCTION        0.04          0.333        0.857
  YS02001751           JUNCTION        0.14          0.474        0.726
  YS02001754           JUNCTION        0.23          0.597        0.553
  YS02001757           JUNCTION        1.12          0.918        0.292
  YS02001759           JUNCTION        1.02          0.896        0.314
  YS02001762           JUNCTION        0.89          0.901        0.249
  YS02001765           JUNCTION        0.48          0.880        0.220
  YS02001767           JUNCTION        0.36          0.898        0.132
  YS02001770           JUNCTION        0.34          0.920        0.000
  YS02001774           JUNCTION        0.76          1.050        0.000
  YS02001779           JUNCTION        0.25          0.680        0.000
  YS02001783           JUNCTION        0.51          0.728        0.872
  YS02001784           JUNCTION        0.48          0.500        0.990
  YS02001786           JUNCTION        0.37          0.277        1.153
  YS02001788           JUNCTION        0.04          0.115        1.365
  YS02001790           JUNCTION        0.06          0.258        0.899
  YS02001791           JUNCTION        0.05          0.203        1.717
  YS02001793           JUNCTION        0.10          0.514        2.086
  YS02001882           JUNCTION        0.45          0.830        0.000
  YS02001884           JUNCTION        0.46          0.870        0.000
  YS02001887           JUNCTION        0.50          0.875        0.075
  YS02001890           JUNCTION        0.51          0.760        0.000
  YS02001895           JUNCTION        0.44          0.626        0.124
  YS02001898           JUNCTION        0.43          0.650        0.090
  YS02001901           JUNCTION        0.48          0.794        0.076
  YS02001904           JUNCTION        0.47          0.717        0.133
  YS02001907           JUNCTION        0.76          0.950        0.000
  YS02001910           JUNCTION        0.54          1.068        0.032
  YS02001915           JUNCTION        0.45          0.984        0.016
  YS02001918           JUNCTION        0.36          0.810        0.000
  YS02001920           JUNCTION        0.37          1.126        0.014
  YS02001923           JUNCTION        0.03          0.820        0.000
  YS02001926           JUNCTION        0.07          0.900        0.000
  YS02001929           JUNCTION        0.01          0.780        0.000
  YS02006553           JUNCTION        0.79          1.095        0.095
  YS02006556           JUNCTION        0.64          1.106        0.244
  YS02006558           JUNCTION        0.62          1.094        0.306
  YS02006561           JUNCTION        0.32          0.444        0.706
  YS02163301           JUNCTION        1.00          0.922        0.108
  YS02163601           JUNCTION        1.23          1.080        0.000
  YS02164001           JUNCTION        1.13          1.100        0.000
  YSB1154              JUNCTION        0.86          1.400        0.000
  YSB1171              JUNCTION        0.86          1.100        0.000
  YSB1174              JUNCTION        0.77          1.250        0.000
  YSB6556              JUNCTION        0.70          1.100        0.000
  
  
  *********************
  Node Flooding Summary
  *********************
  
  Flooding refers to all water that overflows a node, whether it ponds or not.
  --------------------------------------------------------------------------
                                                             Total   Maximum
                                 Maximum   Time of Max       Flood    Ponded
                        Hours       Rate    Occurrence      Volume     Depth
  Node                 Flooded       LPS   days hr:min    10^6 ltr    Meters
  --------------------------------------------------------------------------
  HS02004770              0.36    928.74      0  02:25       0.523     0.000
  HS02004777              0.01     32.64      0  02:14       0.000     0.000
  HS02004785              0.01     65.51      0  02:14       0.000     0.000
  HS02004788              0.01    165.60      0  02:14       0.001     0.000
  HS02004792              0.33   1438.71      0  02:25       0.921     0.000
  HS02004799              0.17    194.28      0  02:24       0.059     0.000
  HS02004807              0.04     66.20      0  02:25       0.006     0.000
  HS02004817              0.01     20.56      0  02:17       0.000     0.000
  HS02004824              0.01     16.38      0  02:17       0.000     0.000
  HS02004830              0.01     25.99      0  02:17       0.000     0.000
  HS02004837              0.01     49.62      0  02:17       0.000     0.000
  HS02004842              0.01    149.24      0  02:17       0.001     0.000
  HS02004848              0.01     56.90      0  02:17       0.000     0.000
  HS02004852              0.01     31.10      0  02:17       0.000     0.000
  HS02004856              0.01     21.81      0  02:17       0.000     0.000
  HS02004862              0.01     18.82      0  02:17       0.000     0.000
  HS02004901              0.42    613.98      0  02:25       0.621     0.000
  WS02006109              0.39    273.60      0  02:25       0.217     0.000
  WS02006112              0.01   1153.65      0  00:00       0.035     0.000
  WS02006228              0.01     10.36      0  02:29       0.000     0.000
  WS02006229              0.01     10.15      0  02:29       0.000     0.000
  WS02006230              0.67    573.55      0  02:24       0.881     0.000
  WS02006231              0.01      0.57      0  02:29       0.000     0.000
  WS02006232              0.16      3.19      0  02:47       0.000     0.000
  WS02006234              0.73    128.40      0  02:22       0.203     0.000
  WS02006235              0.01      0.47      0  02:47       0.000     0.000
  WS02006242              0.84    137.79      0  02:20       0.359     0.000
  WS02006243              0.01     62.21      0  01:46       0.000     0.000
  WS02006245              0.01     72.61      0  01:46       0.000     0.000
  WS02006247              0.01    128.77      0  01:46       0.000     0.000
  WS02006248              1.21    339.43      0  02:22       1.210     0.000
  WS02006249              1.37   1291.56      0  02:25       3.485     0.000
  WS02006252              0.22    426.00      0  02:25       0.141     0.000
  WS02006256              0.66    293.23      0  02:20       0.413     0.000
  YS02001580              0.01     28.64      0  02:12       0.000     0.000
  YS02001583              0.01     51.38      0  02:12       0.000     0.000
  YS02001586              0.42    333.82      0  02:26       0.246     0.000
  YS02001590              0.01      6.60      0  02:12       0.000     0.000
  YS02001600              0.01      1.71      0  02:12       0.000     0.000
  YS02001601              0.62   1052.63      0  02:26       1.131     0.000
  YS02001602              0.44     62.40      0  02:21       0.088     0.000
  YS02001605              0.01      1.12      0  02:29       0.000     0.000
  YS02001610              0.38    602.97      0  02:27       0.477     0.000
  YS02001616              0.01     22.38      0  02:29       0.000     0.000
  YS02001619              0.01     28.54      0  02:29       0.000     0.000
  YS02001625              0.33   1212.59      0  02:26       0.723     0.000
  YS02001629              0.08     89.62      0  02:23       0.014     0.000
  YS02001633              0.01      0.76      0  02:21       0.000     0.000
  YS02001641              0.01      1.35      0  02:21       0.000     0.000
  YS02001644              0.11    438.04      0  02:25       0.103     0.000
  YS02001770              0.01      8.20      0  02:22       0.000     0.000
  YS02001774              0.01      4.17      0  02:22       0.000     0.000
  YS02001779              0.09    164.92      0  02:25       0.029     0.000
  YS02001882              0.01     13.09      0  02:29       0.000     0.000
  YS02001884              0.01      7.95      0  02:29       0.000     0.000
  YS02001890              0.15    182.01      0  02:25       0.043     0.000
  YS02001907              0.30   1530.68      0  02:25       0.934     0.000
  YS02001918              0.01     91.99      0  02:19       0.000     0.000
  YS02001923              0.01     32.94      0  02:19       0.000     0.000
  YS02001926              0.01     64.09      0  02:18       0.000     0.000
  YS02001929              0.01    161.70      0  02:18       0.000     0.000
  YS02163601              0.01      1.86      0  02:21       0.000     0.000
  YS02164001              0.01      3.10      0  02:21       0.000     0.000
  YSB1154                 0.01      0.30      0  02:21       0.000     0.000
  YSB1171                 0.25    915.33      0  02:25       0.432     0.000
  YSB1174                 0.01     11.60      0  02:29       0.000     0.000
  YSB6556                 0.01      0.57      0  02:21       0.000     0.000
  
  
  **********************
  Storage Volume Summary
  **********************
  
  ------------------------------------------------------------------------------------------------
                         Average    Avg   Evap  Exfil     Maximum    Max    Time of Max    Maximum
                          Volume   Pcnt   Pcnt   Pcnt      Volume   Pcnt     Occurrence    Outflow
  Storage Unit           1000 m   Full   Loss   Loss     1000 m   Full    days hr:min        LPS
  ------------------------------------------------------------------------------------------------
  CC-storage               2.268   35.4    0.0    0.0       5.423   84.6       0  03:15    1766.00
  JK-storage               0.011    3.8    0.0    0.0       0.277   95.1       0  02:35    2300.00
  XR-storage               0.950   65.9    0.0    0.0       1.111   77.1       0  08:00     190.00
  
  
  ***********************
  Outfall Loading Summary
  ***********************
  
  -----------------------------------------------------------
                         Flow       Avg       Max       Total
                         Freq      Flow      Flow      Volume
  Outfall Node           Pcnt       LPS       LPS    10^6 ltr
  -----------------------------------------------------------
  CC-1                  40.72    484.82    683.00       3.778
  CC-2                  52.65    480.12    683.00       6.618
  JK-1                  69.53    146.10   1000.00       2.516
  JK-2                  32.31    208.71   1000.00       1.843
  WSC                   99.99    623.25   1505.70      15.364
  -----------------------------------------------------------
  System                59.04   1943.00   4157.32      30.118
  
  
  ********************
  Link Flow Summary
  ********************
  
  -----------------------------------------------------------------------------
                                 Maximum  Time of Max   Maximum    Max/    Max/
                                  |Flow|   Occurrence   |Veloc|    Full    Full
  Link                 Type          LPS  days hr:min     m/sec    Flow   Depth
  -----------------------------------------------------------------------------
  1                    CONDUIT   1505.70     0  02:28      3.70    0.52    0.51
  HS02004478WS02006287 CONDUIT   2305.63     0  02:24      2.56    0.65    1.00
  HS02004479HS02004480 CONDUIT    385.77     0  02:18      0.55    0.37    1.00
  HS02004480HS02004478 CONDUIT   2058.14     0  02:17      2.94    8.67    1.00
  HS02004770HS02004777 CONDUIT    690.56     0  02:14      0.99    1.26    1.00
  HS02004777HS02004785 CONDUIT    705.98     0  02:13      1.07    0.87    1.00
  HS02004785HS02004788 CONDUIT    636.46     0  02:14      1.35    4.80    1.00
  HS02004788HS02004792 CONDUIT    851.46     0  02:14      1.46    0.56    1.00
  HS02004792HS02004799 CONDUIT   1576.28     0  02:15      2.25    0.96    1.00
  HS02004799HS02004480 CONDUIT   1719.14     0  02:15      2.46    2.17    1.00
  HS02004802HS02004478 CONDUIT   1231.99     0  02:26      1.76    1.09    1.00
  HS02004807HS02004802 CONDUIT   1231.61     0  02:26      1.76    2.35    1.00
  HS02004817HS02004807 CONDUIT    884.28     0  02:25      1.26    0.52    1.00
  HS02004817HS02004824 CONDUIT    883.42     0  02:25      1.26    0.40    1.00
  HS02004824HS02004830 CONDUIT    559.27     0  02:15      0.81    0.73    1.00
  HS02004830HS02004837 CONDUIT    558.19     0  02:15      0.88    0.56    1.00
  HS02004837HS02004842 CONDUIT    753.76     0  02:17      1.08    0.45    1.00
  HS02004842HS02004848 CONDUIT    754.17     0  02:17      1.14    0.44    1.00
  HS02004848HS02004852 CONDUIT    991.97     0  02:17      1.53    1.12    1.00
  HS02004852HS02004856 CONDUIT    963.94     0  02:17      1.43    1.10    1.00
  HS02004856HS02004862 CONDUIT    994.57     0  02:17      1.64    0.99    1.00
  HS02004862HS02004870 CONDUIT   1065.45     0  02:16      1.82    1.15    1.00
  HS02004870HS02004876 CONDUIT   1205.46     0  02:25      1.72    0.80    1.00
  HS02004876HS02004881 CONDUIT   1426.89     0  02:25      2.37   15.18    1.00
  HS02004881HS02006253 CONDUIT   1549.59     0  02:25      2.54    0.30    1.00
  HS02004901HS02004770 CONDUIT    265.79     0  02:35      0.38    1.00    1.00
  WS02001211WS02001212 CONDUIT    211.46     0  02:59      0.54    0.16    0.69
  WS02001212WS02001213 CONDUIT    216.36     0  02:59      1.04    0.33    0.56
  WS02001213WS02003059 CONDUIT    221.56     0  02:58      0.47    0.37    0.89
  WS02003059WS02003060 CONDUIT    228.02     0  02:58      0.66    0.15    0.81
  WS02003060WS02003069 CONDUIT   1503.19     0  02:26      2.08    0.59    0.61
  WS02003066WSF200     CONDUIT   1301.14     0  02:25      3.25    0.22    0.38
  WS02003067WS02003066 CONDUIT   1301.02     0  02:25      2.00    0.42    0.56
  WS02003069WS02003072 CONDUIT   1503.31     0  02:27      1.89    0.72    0.66
  WS02003072WS02003073 CONDUIT   1503.49     0  02:27      2.05    3.25    0.62
  WS02004138WS02004139 CONDUIT    190.00     0  00:31      2.17    0.04    0.41
  WS02004139WS02001211 CONDUIT    196.82     0  02:59      0.55    0.25    0.61
  WS02004401WS02004402 CONDUIT   1301.48     0  02:25      2.07    1.56    1.00
  WS02004402WS02004403 CONDUIT   1302.22     0  02:25      1.84    1.87    1.00
  WS02004403WS02004404 CONDUIT   1302.09     0  02:25      1.68    0.94    1.00
  WS02004404WS02004405 CONDUIT   1303.23     0  02:25      1.86   12.77    1.00
  WS02004405WS02004406 CONDUIT   1303.23     0  02:25      1.80    2.57    1.00
  WS02004406WS02004407 CONDUIT   1302.78     0  02:25      1.68    0.58    0.96
  WS02004407WS02004409 CONDUIT   1300.80     0  02:26      1.76    0.46    0.96
  WS02004409WS02004410 CONDUIT   1300.56     0  02:25      1.66    1.68    1.00
  WS02004410WS02004411 CONDUIT   1300.90     0  02:26      1.66    1.78    1.00
  WS02004411WS02004412 CONDUIT   1300.92     0  02:25      1.66    1.85    1.00
  WS02004412WS02004413 CONDUIT   1301.16     0  02:25      1.66    0.87    1.00
  WS02004413WS02003067 CONDUIT   1300.83     0  02:26      2.01    0.56    0.77
  WS02006109WS02006110 CONDUIT   1306.78     0  00:00      3.15    2.51    1.00
  WS02006110WS02006113 CONDUIT   1123.92     0  02:38      2.24    1.02    1.00
  WS02006111WS02006112 CONDUIT   2307.30     0  00:00      9.18    1.10    1.00
  WS02006112WS02006115 CONDUIT   2152.75     0  00:00      2.85    1.27    1.00
  WS02006113WS02006111 CONDUIT   1176.04     0  00:00      2.62    1.41    1.00
  WS02006115WS02006116 CONDUIT   1301.42     0  02:24      1.81    1.67    1.00
  WS02006116WS02004401 CONDUIT   1301.20     0  02:25      2.21    1.79    1.00
  WS02006228WS02006109 CONDUIT   1288.51     0  02:25      2.56    5.63    1.00
  WS02006229WS02006228 CONDUIT   1288.73     0  02:25      2.56    4.27    1.00
  WS02006230WS02006229 CONDUIT   1015.82     0  02:25      2.64   22.61    1.00
  WS02006231WS02006230 CONDUIT    454.36     0  02:47      1.34    6.89    1.00
  WS02006232WS02006231 CONDUIT    454.18     0  02:29      1.18    0.95    1.00
  WS02006234WS02006232 CONDUIT    453.18     0  02:29      1.18    0.92    1.00
  WS02006235WS02006234 CONDUIT    416.61     0  02:25      1.12    4.40    1.00
  WS02006238WS02006235 CONDUIT    416.78     0  02:21      1.23    0.93    1.00
  WS02006239WS02006238 CONDUIT    415.93     0  02:21      1.08    1.33    1.00
  WS02006240WS02006239 CONDUIT    415.27     0  02:21      1.14    1.31    1.00
  WS02006242WS02006240 CONDUIT    415.47     0  02:20      1.08    1.65    1.00
  WS02006243WS02006242 CONDUIT    370.81     0  05:25      1.17    0.79    1.00
  WS02006245WS02006243 CONDUIT    378.13     0  05:24      1.32    1.12    1.00
  WS02006247WS02006245 CONDUIT    388.41     0  04:58      1.35    3.08    1.00
  WS02006248WS02006247 CONDUIT    391.67     0  04:57      1.41    0.85    1.00
  WS02006249WS02006248 CONDUIT    402.64     0  04:27      1.38    2.21    1.00
  WS02006251WS02006249 CONDUIT   1352.66     0  02:25      3.51    3.90    1.00
  WS02006252WS02006251 CONDUIT   1298.45     0  00:05     20.66    4.77    1.00
  WS02006253WS02006251 CONDUIT   1581.78     0  02:25      4.11    4.74    1.00
  WS02006256WS02006235 CONDUIT    221.08     0  01:46      3.13    2.34    1.00
  WS02006280WS02006229 CONDUIT   2305.77     0  02:24      4.04    0.49    1.00
  WS02006284WS02006280 CONDUIT   2304.72     0  02:25      3.02    0.97    1.00
  WS02006287WS02006284 CONDUIT   2304.71     0  02:24      2.93    1.07    1.00
  WSF200WS02003060     CONDUIT   1301.16     0  02:26      2.29    0.29    0.50
  YS02001580YS02001583 CONDUIT     73.63     0  02:12      0.52    0.29    1.00
  YS02001583YS02001586 CONDUIT    118.25     0  02:11      0.51    0.18    1.00
  YS02001586YS02001590 CONDUIT    318.01     0  02:30      1.24    0.56    1.00
  YS02001590YS02001593 CONDUIT    318.15     0  02:29      1.13    2.00    1.00
  YS02001593YS02001596 CONDUIT    318.12     0  02:22      1.68    0.50    1.00
  YS02001596YS02001600 CONDUIT    318.06     0  02:27      1.14    0.62    1.00
  YS02001600YS02001601 CONDUIT    318.35     0  02:30      1.13    0.55    1.00
  YS02001601YS02001602 CONDUIT    491.52     0  02:11      1.74    1.78    1.00
  YS02001602YS02001605 CONDUIT    491.82     0  02:11      1.74   10.41    1.00
  YS02001605YS02001607 CONDUIT    492.06     0  02:11      1.74    2.70    1.00
  YS02001607YS02001610 CONDUIT    492.30     0  02:11      0.63    0.47    1.00
  YS02001610YS02001613 CONDUIT    493.52     0  02:11      0.63    0.57    1.00
  YS02001613YS02001616 CONDUIT    495.29     0  02:11      0.63    0.42    1.00
  YS02001616YS02001619 CONDUIT    495.09     0  02:11      0.66    0.86    1.00
  YS02001619YS02001622 CONDUIT    935.33     0  02:17      1.19    1.38    1.00
  YS02001622YS02001625 CONDUIT    934.55     0  02:17      1.19    0.50    1.00
  YS02001625YS02001629 CONDUIT    935.07     0  02:17      1.19    0.44    1.00
  YS02001629YS02163301 CONDUIT    934.33     0  02:17      1.19    1.15    1.00
  YS02001633YS02163601 CONDUIT   1373.18     0  02:17      1.75    1.44    1.00
  YS02001641YS02001644 CONDUIT   1372.62     0  02:17      1.75    4.44    1.00
  YS02001644YS02001647 CONDUIT   1766.05     0  02:17      2.25    1.04    1.00
  YS02001647YS02001649 CONDUIT   1762.61     0  02:18      2.32    0.93    1.00
  YS02001649YS02001757 CONDUIT   2032.34     0  02:18      2.59    1.23    1.00
  YS02001652YS02001649 CONDUIT    758.53     0  02:25      0.97    0.38    1.00
  YS02001655YS02001652 CONDUIT    758.35     0  02:25      1.21    0.37    1.00
  YS02001658YS02001655 CONDUIT    757.73     0  02:25      1.82    0.32    1.00
  YS02001661YS02001658 CONDUIT    757.33     0  02:25      2.28    0.30    0.95
  YS02001664YS02001661 CONDUIT    753.61     0  02:25      2.29    0.24    0.66
  YS02001745YS02001748 CONDUIT    547.31     0  02:23      2.13    0.21    0.84
  YS02001748YS02001751 CONDUIT    497.92     0  02:21      1.65    0.25    1.00
  YS02001751YS02001754 CONDUIT    483.42     0  02:29      1.29    0.23    1.00
  YS02001754YS02001757 CONDUIT    481.39     0  02:25      0.61    0.19    1.00
  YS02001757CaochengTiaoxuchi CONDUIT   3504.17     0  02:25      6.21    1.52    1.00
  YS02001759YS02001757 CONDUIT   1416.23     0  02:25      1.80    1.01    1.00
  YS02001762YS02001759 CONDUIT    817.54     0  02:27      1.04    0.94    1.00
  YS02001765YS02001762 CONDUIT    816.58     0  02:27      1.04    0.77    1.00
  YS02001767YS02001765 CONDUIT    815.36     0  02:27      1.04    1.03    1.00
  YS02001770YS02001767 CONDUIT    814.54     0  02:27      1.04    3.23    1.00
  YS02001774YS02001770 CONDUIT    183.20     0  02:19      0.23    0.12    1.00
  YS02001779YS02001774 CONDUIT    179.12     0  02:19      0.23    0.09    1.00
  YS02001783YS02001784 CONDUIT   1163.56     0  02:21      2.31    1.60    1.00
  YS02001784YS02001785 CONDUIT   1169.44     0  02:29      2.33    2.72    1.00
  YS02001786YS02001788 CONDUIT   1176.12     0  02:29      2.51    2.27    1.00
  YS02001788YS02001790 CONDUIT   1193.83     0  02:35      2.73    0.88    1.00
  YS02001790YS02001791 CONDUIT   1352.46     0  02:35      3.43    1.47    1.00
  YS02001791YS02001793 CONDUIT   1416.10     0  02:35      6.65    0.61    1.00
  YS02001793JiankangQianchi CONDUIT   1707.08     0  02:35     23.37    0.14    1.00
  YS02001882YS02001884 CONDUIT     31.62     0  02:15      0.12    0.04    1.00
  YS02001884YS02001887 CONDUIT     40.70     0  02:14      0.09    0.05    1.00
  YS02001887YS02001890 CONDUIT    697.32     0  02:25      0.89    1.19    1.00
  YS02001890YS02001895 CONDUIT    516.54     0  02:27      0.66    0.24    1.00
  YS02001895YS02001898 CONDUIT    516.54     0  02:27      0.66    0.90    1.00
  YS02001898YS02001901 CONDUIT    516.66     0  02:28      0.66    0.33    1.00
  YS02001901YS02001904 CONDUIT    516.61     0  02:27      0.66    0.80    1.00
  YS02001904YS02001907 CONDUIT    516.57     0  02:27      0.66    0.18    1.00
  YS02001907YS02006553 CONDUIT    798.36     0  02:37      0.89    0.94    1.00
  YS02001910YS02001907 CONDUIT   1244.33     0  02:26      1.58    0.70    1.00
  YS02001915YS02001910 CONDUIT   1244.08     0  02:25      1.58    0.62    1.00
  YS02001918YS02001915 CONDUIT    446.29     0  02:19      0.57    0.25    1.00
  YS02001920YS02001918 CONDUIT    444.37     0  02:19      0.67    0.43    1.00
  YS02001923YS02001920 CONDUIT    439.93     0  02:19      0.69    0.20    1.00
  YS02001926YS02001923 CONDUIT    420.18     0  02:25      0.94    0.60    1.00
  YS02001929YS02001926 CONDUIT    419.00     0  02:25      1.08    0.20    1.00
  YS02006553YS02006556 CONDUIT    798.61     0  02:37      1.02    0.68    1.00
  YS02006556YS02006558 CONDUIT    800.33     0  02:38      1.02    0.63    1.00
  YS02006558YS02006561 CONDUIT   1177.91     0  02:29      4.17    2.60    1.00
  YS02006561YS02001783 CONDUIT   1162.05     0  02:21      2.31    0.60    1.00
  YS02163301YS02001633 CONDUIT    933.30     0  02:17      1.19    0.88    1.00
  YS02163601YS02164001 CONDUIT   1374.34     0  02:17      1.75    1.22    1.00
  YS02164001YS02001641 CONDUIT   1373.65     0  02:17      1.75    1.88    1.00
  YSB1154YSB6556       CONDUIT    380.63     0  02:25      0.99    0.68    1.00
  YSB1171HS02004479    CONDUIT    383.99     0  02:18      0.76    0.26    1.00
  YSB1174YSB1171       CONDUIT    328.09     0  02:25      0.85    0.50    1.00
  YSB6556YSB1171       CONDUIT    381.50     0  02:25      0.99    0.39    1.00
  CC-R1                PUMP       683.00     0  01:49              1.00
  CC-R2                PUMP       683.00     0  00:20              1.00
  CC-S1                PUMP       200.00     0  00:05              1.00
  CC-S2                PUMP       200.00     0  01:55              1.00
  JK-R1                PUMP      1000.00     0  00:05              1.00
  JK-R2                PUMP      1000.00     0  02:25              1.00
  JK-S                 PUMP       300.00     0  01:35              1.00
  XR-1                 PUMP        95.00     0  00:10              1.00
  XR-2                 PUMP        95.00     0  00:29              1.00
  XR-3                 PUMP         0.00     0  00:00              0.00
  XR-4                 PUMP         0.00     0  00:00              0.00
  
  
  ***************************
  Flow Classification Summary
  ***************************
  
  -------------------------------------------------------------------------------------
                      Adjusted    ---------- Fraction of Time in Flow Class ---------- 
                       /Actual         Up    Down  Sub   Sup   Up    Down  Norm  Inlet 
  Conduit               Length    Dry  Dry   Dry   Crit  Crit  Crit  Crit  Ltd   Ctrl  
  -------------------------------------------------------------------------------------
  1                       1.00   0.00  0.00  0.00  0.00  1.00  0.00  0.00  0.47  0.00
  HS02004478WS02006287    1.00   0.16  0.00  0.00  0.66  0.18  0.00  0.00  0.59  0.00
  HS02004479HS02004480    1.00   0.04  0.00  0.00  0.96  0.00  0.00  0.00  0.11  0.00
  HS02004480HS02004478    1.00   0.13  0.00  0.00  0.61  0.00  0.00  0.26  0.00  0.00
  HS02004770HS02004777    1.00   0.00  0.13  0.00  0.87  0.00  0.00  0.00  0.03  0.00
  HS02004777HS02004785    1.00   0.00  0.00  0.00  1.00  0.00  0.00  0.00  0.12  0.00
  HS02004785HS02004788    1.00   0.00  0.00  0.00  1.00  0.00  0.00  0.00  0.00  0.00
  HS02004788HS02004792    1.00   0.00  0.00  0.00  0.99  0.01  0.00  0.00  0.91  0.00
  HS02004792HS02004799    1.00   0.00  0.00  0.00  0.99  0.01  0.00  0.00  0.86  0.00
  HS02004799HS02004480    1.00   0.00  0.03  0.00  0.84  0.00  0.12  0.00  0.00  0.00
  HS02004802HS02004478    1.00   0.13  0.01  0.00  0.86  0.00  0.00  0.00  0.03  0.00
  HS02004807HS02004802    1.00   0.13  0.00  0.00  0.85  0.00  0.00  0.02  0.00  0.00
  HS02004817HS02004807    1.00   0.00  0.13  0.00  0.87  0.00  0.00  0.00  0.01  0.00
  HS02004817HS02004824    1.00   0.00  0.00  0.00  1.00  0.00  0.00  0.00  0.82  0.00
  HS02004824HS02004830    1.00   0.00  0.00  0.00  1.00  0.00  0.00  0.00  0.01  0.00
  HS02004830HS02004837    1.00   0.00  0.00  0.00  1.00  0.00  0.00  0.00  0.88  0.00
  HS02004837HS02004842    1.00   0.00  0.00  0.00  0.99  0.01  0.00  0.00  0.11  0.00
  HS02004842HS02004848    1.00   0.00  0.13  0.00  0.87  0.00  0.00  0.00  0.55  0.00
  HS02004848HS02004852    1.00   0.13  0.00  0.00  0.87  0.00  0.00  0.00  0.70  0.00
  HS02004852HS02004856    1.00   0.13  0.01  0.00  0.86  0.00  0.00  0.00  0.67  0.00
  HS02004856HS02004862    1.00   0.00  0.17  0.00  0.83  0.00  0.00  0.00  0.74  0.00
  HS02004862HS02004870    1.00   0.00  0.00  0.00  1.00  0.00  0.00  0.00  0.04  0.00
  HS02004870HS02004876    1.00   0.00  0.00  0.00  1.00  0.00  0.00  0.00  0.86  0.00
  HS02004876HS02004881    1.00   0.01  0.00  0.00  0.84  0.15  0.00  0.00  0.00  0.00
  HS02004881HS02006253    1.00   0.02  0.03  0.00  0.44  0.00  0.00  0.51  0.37  0.00
  HS02004901HS02004770    1.00   0.13  0.00  0.00  0.87  0.00  0.00  0.00  0.00  0.00
  WS02001211WS02001212    1.00   0.00  0.02  0.00  0.98  0.00  0.00  0.00  0.00  0.00
  WS02001212WS02001213    1.00   0.02  0.00  0.00  0.46  0.00  0.51  0.00  0.00  0.00
  WS02001213WS02003059    1.00   0.00  0.01  0.00  0.99  0.00  0.00  0.00  0.00  0.00
  WS02003059WS02003060    1.00   0.00  0.00  0.00  1.00  0.00  0.00  0.00  0.03  0.00
  WS02003060WS02003069    1.00   0.00  0.00  0.00  0.97  0.03  0.00  0.00  0.40  0.00
  WS02003066WSF200        1.00   0.06  0.00  0.00  0.00  0.94  0.00  0.00  0.68  0.00
  WS02003067WS02003066    1.00   0.05  0.01  0.00  0.94  0.00  0.00  0.00  0.00  0.00
  WS02003069WS02003072    1.00   0.00  0.00  0.00  0.99  0.01  0.00  0.00  0.46  0.00
  WS02003072WS02003073    1.00   0.00  0.00  0.00  0.00  0.00  0.00  1.00  0.00  0.00
  WS02004138WS02004139    1.00   0.02  0.00  0.00  0.97  0.01  0.00  0.00  0.98  0.00
  WS02004139WS02001211    1.00   0.00  0.01  0.00  0.99  0.00  0.00  0.00  0.00  0.00
  WS02004401WS02004402    1.00   0.00  0.00  0.00  1.00  0.00  0.00  0.00  0.00  0.00
  WS02004402WS02004403    1.00   0.00  0.00  0.00  1.00  0.00  0.00  0.00  0.00  0.00
  WS02004403WS02004404    1.00   0.00  0.00  0.00  1.00  0.00  0.00  0.00  0.00  0.00
  WS02004404WS02004405    1.00   0.00  0.00  0.00  1.00  0.00  0.00  0.00  0.00  0.00
  WS02004405WS02004406    1.00   0.00  0.00  0.00  1.00  0.00  0.00  0.00  0.00  0.00
  WS02004406WS02004407    1.00   0.00  0.01  0.00  0.99  0.00  0.00  0.00  0.01  0.00
  WS02004407WS02004409    1.00   0.01  0.00  0.00  0.98  0.01  0.00  0.00  0.86  0.00
  WS02004409WS02004410    1.00   0.01  0.00  0.00  0.99  0.00  0.00  0.00  0.00  0.00
  WS02004410WS02004411    1.00   0.01  0.00  0.00  0.99  0.00  0.00  0.00  0.01  0.00
  WS02004411WS02004412    1.00   0.01  0.00  0.00  0.99  0.00  0.00  0.00  0.00  0.00
  WS02004412WS02004413    1.00   0.01  0.00  0.00  0.99  0.00  0.00  0.00  0.02  0.00
  WS02004413WS02003067    1.00   0.01  0.04  0.00  0.00  0.00  0.95  0.00  0.00  0.00
  WS02006109WS02006110    1.00   0.00  0.00  0.00  1.00  0.00  0.00  0.00  0.00  0.00
  WS02006110WS02006113    1.00   0.00  0.00  0.00  1.00  0.00  0.00  0.00  0.00  0.00
  WS02006111WS02006112    1.00   0.00  0.00  0.00  1.00  0.00  0.00  0.00  0.79  0.00
  WS02006112WS02006115    1.00   0.00  0.00  0.00  1.00  0.00  0.00  0.00  0.00  0.00
  WS02006113WS02006111    1.00   0.00  0.00  0.00  0.18  0.82  0.00  0.00  0.11  0.00
  WS02006115WS02006116    1.00   0.00  0.00  0.00  1.00  0.00  0.00  0.00  0.00  0.00
  WS02006116WS02004401    1.00   0.00  0.00  0.00  1.00  0.00  0.00  0.00  0.00  0.00
  WS02006228WS02006109    1.00   0.00  0.00  0.00  1.00  0.00  0.00  0.00  0.00  0.00
  WS02006229WS02006228    1.00   0.00  0.00  0.00  1.00  0.00  0.00  0.00  0.00  0.00
  WS02006230WS02006229    1.00   0.00  0.00  0.00  1.00  0.00  0.00  0.00  0.00  0.00
  WS02006231WS02006230    1.00   0.00  0.00  0.00  0.33  0.00  0.66  0.00  0.00  0.00
  WS02006232WS02006231    1.00   0.00  0.00  0.00  0.99  0.00  0.00  0.00  0.01  0.00
  WS02006234WS02006232    1.00   0.00  0.01  0.00  0.99  0.00  0.00  0.00  0.19  0.00
  WS02006235WS02006234    1.00   0.02  0.00  0.00  0.71  0.00  0.27  0.00  0.00  0.00
  WS02006238WS02006235    1.00   0.02  0.00  0.00  0.98  0.00  0.00  0.00  0.00  0.00
  WS02006239WS02006238    1.00   0.02  0.00  0.00  0.98  0.00  0.00  0.00  0.24  0.00
  WS02006240WS02006239    1.00   0.02  0.00  0.00  0.62  0.00  0.00  0.37  0.01  0.00
  WS02006242WS02006240    1.00   0.01  0.00  0.00  0.98  0.00  0.01  0.00  0.00  0.00
  WS02006243WS02006242    1.00   0.01  0.00  0.00  0.98  0.00  0.00  0.01  0.44  0.00
  WS02006245WS02006243    1.00   0.01  0.00  0.00  0.92  0.00  0.00  0.07  0.01  0.00
  WS02006247WS02006245    1.00   0.01  0.00  0.00  0.98  0.00  0.00  0.01  0.00  0.00
  WS02006248WS02006247    1.00   0.01  0.00  0.00  0.98  0.00  0.00  0.00  0.41  0.00
  WS02006249WS02006248    1.00   0.00  0.01  0.00  0.54  0.00  0.45  0.00  0.00  0.00
  WS02006251WS02006249    1.00   0.00  0.00  0.00  1.00  0.00  0.00  0.00  0.44  0.00
  WS02006252WS02006251    1.00   0.01  0.20  0.00  0.18  0.00  0.60  0.00  0.00  0.00
  WS02006253WS02006251    1.00   0.01  0.00  0.00  0.97  0.00  0.02  0.00  0.00  0.00
  WS02006256WS02006235    1.00   0.02  0.00  0.00  0.98  0.00  0.00  0.00  0.00  0.00
  WS02006280WS02006229    1.00   0.14  0.00  0.00  0.15  0.02  0.00  0.68  0.01  0.00
  WS02006284WS02006280    1.00   0.14  0.00  0.00  0.10  0.01  0.00  0.75  0.00  0.00
  WS02006287WS02006284    1.00   0.10  0.06  0.00  0.56  0.28  0.00  0.00  0.64  0.00
  WSF200WS02003060        1.00   0.00  0.06  0.00  0.66  0.28  0.00  0.00  0.49  0.00
  YS02001580YS02001583    1.00   0.27  0.54  0.00  0.19  0.00  0.00  0.00  0.63  0.00
  YS02001583YS02001586    1.00   0.41  0.35  0.00  0.24  0.00  0.00  0.00  0.64  0.00
  YS02001586YS02001590    1.00   0.13  0.00  0.00  0.45  0.04  0.00  0.39  0.38  0.00
  YS02001590YS02001593    1.00   0.13  0.01  0.00  0.11  0.00  0.75  0.00  0.00  0.00
  YS02001593YS02001596    1.00   0.13  0.00  0.00  0.14  0.01  0.00  0.72  0.02  0.00
  YS02001596YS02001600    1.00   0.14  0.00  0.00  0.22  0.01  0.00  0.63  0.07  0.00
  YS02001600YS02001601    1.00   0.13  0.01  0.00  0.86  0.00  0.00  0.00  0.59  0.00
  YS02001601YS02001602    1.00   0.13  0.01  0.00  0.87  0.00  0.00  0.00  0.00  0.00
  YS02001602YS02001605    1.00   0.13  0.00  0.00  0.86  0.00  0.00  0.00  0.00  0.00
  YS02001605YS02001607    1.00   0.14  0.00  0.00  0.86  0.00  0.00  0.00  0.00  0.00
  YS02001607YS02001610    1.00   0.13  0.01  0.00  0.86  0.00  0.00  0.00  0.01  0.00
  YS02001610YS02001613    1.00   0.13  0.00  0.00  0.87  0.00  0.00  0.00  0.00  0.00
  YS02001613YS02001616    1.00   0.13  0.00  0.00  0.87  0.00  0.00  0.00  0.00  0.00
  YS02001616YS02001619    1.00   0.13  0.00  0.00  0.87  0.00  0.00  0.00  0.00  0.00
  YS02001619YS02001622    1.00   0.13  0.00  0.00  0.87  0.00  0.00  0.00  0.27  0.00
  YS02001622YS02001625    1.00   0.13  0.00  0.00  0.87  0.00  0.00  0.00  0.04  0.00
  YS02001625YS02001629    1.00   0.13  0.05  0.00  0.23  0.00  0.59  0.00  0.00  0.00
  YS02001629YS02163301    1.00   0.15  0.01  0.00  0.84  0.00  0.00  0.00  0.00  0.00
  YS02001633YS02163601    1.00   0.00  0.01  0.00  0.99  0.00  0.00  0.00  0.15  0.00
  YS02001641YS02001644    1.00   0.00  0.01  0.00  0.99  0.00  0.00  0.00  0.00  0.00
  YS02001644YS02001647    1.00   0.00  0.17  0.00  0.83  0.00  0.00  0.00  0.00  0.00
  YS02001647YS02001649    1.00   0.00  0.17  0.00  0.72  0.11  0.00  0.00  0.50  0.00
  YS02001649YS02001757    1.00   0.00  0.00  0.00  0.90  0.10  0.00  0.00  0.53  0.00
  YS02001652YS02001649    1.00   0.00  0.00  0.00  0.96  0.04  0.00  0.00  0.63  0.00
  YS02001655YS02001652    1.00   0.00  0.00  0.00  0.30  0.01  0.00  0.69  0.07  0.00
  YS02001658YS02001655    1.00   0.00  0.14  0.00  0.73  0.13  0.00  0.00  0.64  0.00
  YS02001661YS02001658    1.00   0.14  0.00  0.00  0.54  0.32  0.00  0.00  0.72  0.00
  YS02001664YS02001661    1.00   0.13  0.00  0.00  0.74  0.14  0.00  0.00  0.86  0.00
  YS02001745YS02001748    1.00   0.00  0.00  0.00  0.14  0.00  0.00  0.85  0.12  0.00
  YS02001748YS02001751    1.00   0.00  0.00  0.00  0.85  0.15  0.00  0.00  0.66  0.00
  YS02001751YS02001754    1.00   0.00  0.00  0.00  0.27  0.01  0.00  0.72  0.05  0.00
  YS02001754YS02001757    1.00   0.00  0.00  0.00  1.00  0.00  0.00  0.00  0.70  0.00
  YS02001757CaochengTiaoxuchi    1.00   0.00  0.00  0.00  0.51  0.49  0.00  0.00  0.24  0.00
  YS02001759YS02001757    1.00   0.00  0.00  0.00  1.00  0.00  0.00  0.00  0.58  0.00
  YS02001762YS02001759    1.00   0.00  0.00  0.00  1.00  0.00  0.00  0.00  0.04  0.00
  YS02001765YS02001762    1.00   0.00  0.00  0.00  1.00  0.00  0.00  0.00  0.58  0.00
  YS02001767YS02001765    1.00   0.00  0.00  0.00  1.00  0.00  0.00  0.00  0.01  0.00
  YS02001770YS02001767    1.00   0.00  0.00  0.00  1.00  0.00  0.00  0.00  0.00  0.00
  YS02001774YS02001770    1.00   0.00  0.13  0.00  0.70  0.00  0.16  0.00  0.03  0.00
  YS02001779YS02001774    1.00   0.00  0.00  0.00  1.00  0.00  0.00  0.00  0.65  0.00
  YS02001783YS02001784    1.00   0.00  0.18  0.00  0.82  0.00  0.00  0.00  0.55  0.00
  YS02001784YS02001785    1.00   0.00  0.00  0.00  1.00  0.00  0.00  0.00  0.17  0.00
  YS02001786YS02001788    1.00   0.00  0.00  0.00  0.78  0.22  0.00  0.00  0.00  0.00
  YS02001788YS02001790    1.00   0.00  0.00  0.00  0.21  0.79  0.00  0.00  0.80  0.00
  YS02001790YS02001791    1.00   0.00  0.00  0.00  0.02  0.98  0.00  0.00  0.16  0.00
  YS02001791YS02001793    1.00   0.00  0.00  0.00  0.01  0.98  0.00  0.00  0.01  0.00
  YS02001793JiankangQianchi    1.00   0.00  0.00  0.00  0.31  0.69  0.00  0.00  0.32  0.00
  YS02001882YS02001884    1.00   0.15  0.01  0.00  0.84  0.00  0.00  0.00  0.00  0.00
  YS02001884YS02001887    1.00   0.06  0.05  0.00  0.89  0.00  0.00  0.00  0.00  0.00
  YS02001887YS02001890    1.00   0.00  0.00  0.00  0.97  0.00  0.03  0.00  0.00  0.00
  YS02001890YS02001895    1.00   0.00  0.16  0.00  0.84  0.00  0.00  0.00  0.00  0.00
  YS02001895YS02001898    1.00   0.16  0.00  0.00  0.82  0.00  0.02  0.00  0.00  0.00
  YS02001898YS02001901    1.00   0.17  0.00  0.00  0.83  0.00  0.00  0.00  0.01  0.00
  YS02001901YS02001904    1.00   0.17  0.00  0.00  0.83  0.00  0.00  0.00  0.00  0.00
  YS02001904YS02001907    1.00   0.00  0.16  0.00  0.83  0.00  0.00  0.00  0.00  0.00
  YS02001907YS02006553    1.00   0.00  0.02  0.00  0.98  0.00  0.00  0.00  0.00  0.00
  YS02001910YS02001907    1.00   0.00  0.00  0.00  0.97  0.00  0.00  0.03  0.12  0.00
  YS02001915YS02001910    1.00   0.00  0.00  0.00  0.97  0.03  0.00  0.00  0.16  0.00
  YS02001918YS02001915    1.00   0.00  0.00  0.00  0.98  0.02  0.00  0.00  0.75  0.00
  YS02001920YS02001918    1.00   0.00  0.00  0.00  1.00  0.00  0.00  0.00  0.01  0.00
  YS02001923YS02001920    1.00   0.00  0.00  0.00  1.00  0.00  0.00  0.00  0.93  0.00
  YS02001926YS02001923    1.00   0.00  0.07  0.00  0.06  0.00  0.87  0.00  0.00  0.00
  YS02001929YS02001926    1.00   0.00  0.13  0.00  0.87  0.00  0.00  0.00  0.82  0.00
  YS02006553YS02006556    1.00   0.01  0.00  0.00  0.99  0.00  0.00  0.00  0.03  0.00
  YS02006556YS02006558    1.00   0.00  0.00  0.00  1.00  0.00  0.00  0.00  0.00  0.00
  YS02006558YS02006561    1.00   0.18  0.00  0.00  0.05  0.77  0.00  0.00  0.19  0.00
  YS02006561YS02001783    1.00   0.18  0.00  0.00  0.09  0.73  0.00  0.00  0.68  0.00
  YS02163301YS02001633    1.00   0.00  0.15  0.00  0.85  0.00  0.00  0.00  0.00  0.00
  YS02163601YS02164001    1.00   0.00  0.08  0.00  0.92  0.00  0.00  0.00  0.00  0.00
  YS02164001YS02001641    1.00   0.01  0.07  0.00  0.92  0.00  0.00  0.00  0.05  0.00
  YSB1154YSB6556          1.00   0.12  0.00  0.00  0.88  0.00  0.00  0.00  0.02  0.00
  YSB1171HS02004479       1.00   0.04  0.00  0.00  0.95  0.00  0.00  0.01  0.10  0.00
  YSB1174YSB1171          1.00   0.05  0.04  0.00  0.91  0.00  0.00  0.00  0.00  0.00
  YSB6556YSB1171          1.00   0.04  0.08  0.00  0.88  0.00  0.00  0.00  0.00  0.00
  
  
  *************************
  Conduit Surcharge Summary
  *************************
  
  ----------------------------------------------------------------------------
                                                           Hours        Hours 
                         --------- Hours Full --------   Above Full   Capacity
  Conduit                Both Ends  Upstream  Dnstream   Normal Flow   Limited
  ----------------------------------------------------------------------------
  HS02004478WS02006287        0.45      0.45      0.63      0.01         0.01
  HS02004479HS02004480        0.63      0.63      0.65      0.01         0.01
  HS02004480HS02004478        0.56      0.62      0.56      1.70         0.56
  HS02004770HS02004777        0.52      0.52      0.53      0.12         0.07
  HS02004777HS02004785        0.48      0.48      0.53      0.01         0.01
  HS02004785HS02004788        0.47      0.48      0.47      1.39         0.44
  HS02004788HS02004792        0.47      0.47      0.59      0.01         0.01
  HS02004792HS02004799        0.59      0.59      0.73      0.01         0.01
  HS02004799HS02004480        0.62      0.62      0.73      0.82         0.01
  HS02004802HS02004478        0.57      0.57      0.65      0.06         0.01
  HS02004807HS02004802        0.61      0.61      0.64      0.22         0.23
  HS02004817HS02004807        0.61      0.61      1.21      0.01         0.01
  HS02004817HS02004824        0.47      0.47      1.21      0.01         0.01
  HS02004824HS02004830        0.44      0.44      0.47      0.01         0.01
  HS02004830HS02004837        0.41      0.41      0.44      0.01         0.01
  HS02004837HS02004842        0.41      0.41      0.54      0.01         0.01
  HS02004842HS02004848        0.36      0.36      0.54      0.01         0.01
  HS02004848HS02004852        0.36      0.36      0.38      0.03         0.01
  HS02004852HS02004856        0.38      0.38      0.40      0.02         0.01
  HS02004856HS02004862        0.36      0.36      0.40      0.01         0.01
  HS02004862HS02004870        0.40      0.40      0.42      0.19         0.17
  HS02004870HS02004876        0.42      0.42      0.47      0.01         0.01
  HS02004876HS02004881        0.45      0.47      0.45      1.44         0.45
  HS02004881HS02006253        0.45      0.45      1.39      0.01         0.01
  HS02004901HS02004770        0.52      0.52      0.53      0.01         0.01
  WS02003072WS02003073        0.01      0.01      0.01      3.60         0.01
  WS02004401WS02004402        1.57      1.57      1.59      1.36         1.36
  WS02004402WS02004403        1.59      1.59      1.60      1.56         1.55
  WS02004403WS02004404        1.60      1.60      1.71      0.01         0.01
  WS02004404WS02004405        1.69      1.71      1.69      4.55         1.69
  WS02004405WS02004406        1.67      1.69      1.67      1.88         1.67
  WS02004406WS02004407        0.01      0.01      1.67      0.01         0.01
  WS02004407WS02004409        0.01      0.01      1.03      0.01         0.01
  WS02004409WS02004410        0.95      1.03      0.95      1.42         0.95
  WS02004410WS02004411        0.86      0.95      0.86      1.46         0.86
  WS02004411WS02004412        0.76      0.86      0.76      1.56         0.76
  WS02004412WS02004413        0.76      0.76      1.30      0.01         0.01
  WS02004413WS02003067        0.01      0.01      1.30      0.01         0.01
  WS02006109WS02006110        1.84      1.85      2.20      1.86         0.01
  WS02006110WS02006113        1.29      1.29      2.18      0.29         0.01
  WS02006111WS02006112        1.27      1.28      2.90      0.01         0.01
  WS02006112WS02006115        1.43      1.43      1.92      0.01         0.01
  WS02006113WS02006111        1.28      1.29      1.29      1.36         1.28
  WS02006115WS02006116        1.43      1.44      1.44      1.42         1.40
  WS02006116WS02004401        1.56      1.56      1.57      1.50         1.48
  WS02006228WS02006109        2.15      2.20      2.15      3.73         2.15
  WS02006229WS02006228        2.14      2.16      2.14      2.70         2.14
  WS02006230WS02006229        2.32      2.54      2.32      4.47         1.26
  WS02006231WS02006230        1.70      1.70      1.76      4.18         1.00
  WS02006232WS02006231        1.75      1.75      1.97      0.01         0.15
  WS02006234WS02006232        1.84      1.84      1.97      0.01         0.01
  WS02006235WS02006234        1.81      1.81      1.86      3.98         0.97
  WS02006238WS02006235        1.87      1.87      1.91      0.01         0.32
  WS02006239WS02006238        1.86      1.86      1.88      0.96         0.01
  WS02006240WS02006239        1.77      1.77      1.80      0.95         0.01
  WS02006242WS02006240        1.76      1.76      1.86      1.66         0.85
  WS02006243WS02006242        1.71      1.71      1.80      0.01         0.01
  WS02006245WS02006243        1.68      1.68      1.70      0.17         0.01
  WS02006247WS02006245        1.67      1.68      1.67      3.50         0.46
  WS02006248WS02006247        1.64      1.64      1.67      0.01         0.01
  WS02006249WS02006248        1.62      1.62      1.64      2.40         0.01
  WS02006251WS02006249        1.62      1.62      1.64      1.42         1.23
  WS02006252WS02006251        1.63      1.64      1.71      0.34         0.01
  WS02006253WS02006251        1.61      1.61      1.63      0.76         0.01
  WS02006256WS02006235        4.27      4.28      5.54      0.66         0.01
  WS02006280WS02006229        0.77      0.77      0.90      0.01         0.01
  WS02006284WS02006280        0.66      0.66      0.75      0.01         0.01
  WS02006287WS02006284        0.55      0.55      0.67      0.26         0.27
  YS02001580YS02001583        0.56      0.56      0.61      0.01         0.01
  YS02001583YS02001586        0.57      0.57      0.68      0.01         0.01
  YS02001586YS02001590        0.69      0.69      0.77      0.01         0.01
  YS02001590YS02001593        0.77      0.77      0.79      0.80         0.01
  YS02001593YS02001596        0.79      0.79      0.91      0.01         0.01
  YS02001596YS02001600        0.97      0.97      1.08      0.01         0.01
  YS02001600YS02001601        1.15      1.15      1.58      0.01         0.01
  YS02001601YS02001602        1.47      1.47      1.62      1.07         0.01
  YS02001602YS02001605        1.42      1.42      1.47      2.36         0.01
  YS02001605YS02001607        1.38      1.42      1.41      1.35         1.19
  YS02001607YS02001610        0.76      0.76      0.79      0.01         0.01
  YS02001610YS02001613        0.75      0.75      0.79      0.01         0.01
  YS02001613YS02001616        0.69      0.69      0.75      0.01         0.01
  YS02001616YS02001619        0.67      0.67      0.69      0.01         0.01
  YS02001619YS02001622        0.67      0.67      0.67      0.78         0.65
  YS02001622YS02001625        0.67      0.67      0.94      0.01         0.01
  YS02001625YS02001629        0.58      0.58      0.94      0.01         0.01
  YS02001629YS02163301        0.96      0.96      1.00      0.32         0.30
  YS02001633YS02163601        1.16      1.16      1.23      0.47         0.47
  YS02001641YS02001644        1.12      1.14      1.12      1.54         1.01
  YS02001644YS02001647        0.45      0.45      1.12      0.05         0.01
  YS02001647YS02001649        0.45      0.45      1.04      0.01         0.01
  YS02001649YS02001757        1.02      1.04      1.12      0.41         0.33
  YS02001652YS02001649        0.37      0.37      1.04      0.01         0.01
  YS02001655YS02001652        0.23      0.23      0.35      0.01         0.01
  YS02001658YS02001655        0.12      0.12      0.23      0.01         0.01
  YS02001661YS02001658        0.01      0.01      0.12      0.01         0.01
  YS02001745YS02001748        0.01      0.01      0.04      0.01         0.01
  YS02001748YS02001751        0.09      0.09      0.14      0.01         0.01
  YS02001751YS02001754        0.14      0.14      0.23      0.01         0.01
  YS02001754YS02001757        0.26      0.26      1.12      0.01         0.01
  YS02001757CaochengTiaoxuchi        0.90      1.12      1.99      0.42         0.13
  YS02001759YS02001757        1.02      1.02      1.12      0.01         0.04
  YS02001762YS02001759        0.89      0.89      1.02      0.01         0.04
  YS02001765YS02001762        0.48      0.48      0.89      0.01         0.01
  YS02001767YS02001765        0.36      0.36      0.48      0.01         0.06
  YS02001770YS02001767        0.36      0.37      0.36      0.53         0.31
  YS02001774YS02001770        0.34      0.34      0.76      0.01         0.01
  YS02001779YS02001774        0.25      0.25      0.76      0.01         0.01
  YS02001783YS02001784        0.48      0.51      0.48      0.68         0.48
  YS02001784YS02001785        0.37      0.48      0.37      0.94         0.37
  YS02001786YS02001788        0.04      0.37      0.04      0.81         0.04
  YS02001788YS02001790        0.04      0.04      0.06      0.01         0.01
  YS02001790YS02001791        0.05      0.06      0.05      0.47         0.05
  YS02001791YS02001793        0.05      0.05      0.16      0.01         0.01
  YS02001793JiankangQianchi        0.10      0.10      0.49      0.01         0.01
  YS02001882YS02001884        0.45      0.45      0.46      0.01         0.01
  YS02001884YS02001887        0.48      0.48      0.49      0.01         0.01
  YS02001887YS02001890        0.51      0.51      0.52      0.07         0.01
  YS02001890YS02001895        0.44      0.44      0.54      0.01         0.01
  YS02001895YS02001898        0.43      0.43      0.44      0.01         0.01
  YS02001898YS02001901        0.44      0.44      0.48      0.01         0.01
  YS02001901YS02001904        0.47      0.47      0.48      0.01         0.01
  YS02001904YS02001907        0.47      0.47      0.79      0.01         0.01
  YS02001907YS02006553        0.95      0.95      1.03      0.01         0.01
  YS02001910YS02001907        0.54      0.54      0.76      0.01         0.01
  YS02001915YS02001910        0.45      0.45      0.54      0.01         0.01
  YS02001918YS02001915        0.36      0.36      0.45      0.01         0.01
  YS02001920YS02001918        0.36      0.36      0.37      0.01         0.01
  YS02001923YS02001920        0.31      0.31      0.37      0.01         0.01
  YS02001926YS02001923        0.03      0.03      0.07      0.01         0.01
  YS02001929YS02001926        0.01      0.01      0.07      0.01         0.01
  YS02006553YS02006556        0.64      0.64      0.79      0.01         0.01
  YS02006556YS02006558        0.71      0.71      0.80      0.01         0.01
  YS02006558YS02006561        0.39      0.63      0.39      0.89         0.39
  YS02006561YS02001783        0.32      0.32      0.51      0.01         0.01
  YS02163301YS02001633        1.00      1.00      1.19      0.01         0.01
  YS02163601YS02164001        1.13      1.13      1.23      0.24         0.01
  YS02164001YS02001641        1.13      1.13      1.14      0.74         0.67
  YSB1154YSB6556              0.70      0.70      0.86      0.01         0.01
  YSB1171HS02004479           0.58      0.58      0.86      0.01         0.01
  YSB1174YSB1171              0.77      0.77      1.12      0.01         0.01
  YSB6556YSB1171              0.70      0.70      1.27      0.01         0.01
  
  
  ***************
  Pumping Summary
  ***************
  
  ---------------------------------------------------------------------------------------------------------
                                                  Min       Avg       Max     Total     Power    % Time Off
                        Percent   Number of      Flow      Flow      Flow    Volume     Usage    Pump Curve
  Pump                 Utilized   Start-Ups       LPS       LPS       LPS  10^6 ltr     Kw-hr    Low   High
  ---------------------------------------------------------------------------------------------------------
  CC-R1                   48.96          13      0.00    484.82    683.00     3.779     65.16    0.0   83.1
  CC-R2                   69.79          11      0.00    480.12    683.00     6.614    112.00    0.0   85.4
  CC-S1                   29.17          11      0.00    199.28    200.00     1.669     10.43    0.0   21.5
  CC-S2                   25.00           9      0.00    184.65    200.00     1.214      8.21    0.0   41.9
  JK-R1                   55.21          11      0.00    146.10   1000.00     2.522     12.41    0.0    0.0
  JK-R2                   20.83          10      0.00    208.71   1000.00     1.844     14.55    0.0    0.0
  JK-S                    48.96          11      0.00     73.87    300.00     1.029     20.89    0.0    0.0
  XR-1                    97.91           1      0.00     95.00     95.00     2.679      9.63    0.0    0.0
  XR-2                    93.95           1      0.00     95.00     95.00     2.570      8.79    0.0    0.0
  XR-3                     0.00           0      0.00      0.00      0.00     0.000      0.00    0.0    0.0
  XR-4                     0.00           0      0.00      0.00      0.00     0.000      0.00    0.0    0.0
  

  Analysis begun on:  Thu Jun 15 19:51:48 2023
  Analysis ended on:  Thu Jun 15 19:52:00 2023
  Total elapsed time: 00:00:12