
  OWA STORM WATER MANAGEMENT MODEL - VERSION v5.2.3 (OWA 2023-03-28)
  ------------------------------------------------------------

  WARNING 04: minimum elevation drop used for Conduit WS02004404WS02004405
  WARNING 03: negative offset ignored for Link YS02001904YS02001907
  
  ****************
  Analysis Options
  ****************
  Flow Units ............... LPS
  Process Models:
    Rainfall/Runoff ........ YES
    RDII ................... NO
    Snowmelt ............... NO
    Groundwater ............ NO
    Flow Routing ........... YES
    Ponding Allowed ........ NO
    Water Quality .......... NO
  Infiltration Method ...... HORTON
  Flow Routing Method ...... DYNWAVE
  Surcharge Method ......... EXTRAN
  Starting Date ............ 08/28/2015 08:00:00
  Ending Date .............. 08/28/2015 16:00:00
  Antecedent Dry Days ...... 8.0
  Report Time Step ......... 00:01:00
  Wet Time Step ............ 00:01:00
  Dry Time Step ............ 00:01:00
  Routing Time Step ........ 30.00 sec
  Variable Time Step ....... YES
  Maximum Trials ........... 8
  Number of Threads ........ 1
  Head Tolerance ........... 0.001500 m
  
  
  **************************        Volume         Depth
  Runoff Quantity Continuity     hectare-m            mm
  **************************     ---------       -------
  Total Precipitation ......         3.734        61.641
  Evaporation Loss .........         0.000         0.000
  Infiltration Loss ........         0.246         4.057
  Surface Runoff ...........         3.428        56.588
  Final Storage ............         0.061         1.008
  Continuity Error (%) .....        -0.019
  
  
  **************************        Volume        Volume
  Flow Routing Continuity        hectare-m      10^6 ltr
  **************************     ---------     ---------
  Dry Weather Inflow .......         0.630         6.296
  Wet Weather Inflow .......         3.429        34.289
  Groundwater Inflow .......         0.000         0.000
  RDII Inflow ..............         0.000         0.000
  External Inflow ..........         0.105         1.045
  External Outflow .........         3.133        31.328
  Flooding Loss ............         1.469        14.692
  Evaporation Loss .........         0.000         0.000
  Exfiltration Loss ........         0.000         0.000
  Initial Stored Volume ....         0.303         3.031
  Final Stored Volume ......         0.173         1.732
  Continuity Error (%) .....        -6.921
  
  
  *************************
  Highest Continuity Errors
  *************************
  Node JK-storage (-48.83%)
  Node CC-storage (-6.84%)
  Node YS02001884 (5.16%)
  Node YS02001583 (-4.13%)
  Node HS02004842 (1.70%)
  
  
  ***************************
  Time-Step Critical Elements
  ***************************
  Link WS02006252WS02006251 (71.69%)
  Link YS02001793JiankangQianchi (9.84%)
  Link WS02006280WS02006229 (7.83%)
  Link WS02006238WS02006235 (2.30%)
  Link YS02001791YS02001793 (1.88%)
  
  
  ********************************
  Highest Flow Instability Indexes
  ********************************
  Link WS02006113WS02006111 (25)
  Link WS02006111WS02006112 (20)
  Link WS02004404WS02004405 (16)
  Link WS02006238WS02006235 (14)
  Link WS02004403WS02004404 (13)
  
  
  *********************************
  Most Frequent Nonconverging Nodes
  *********************************
  Node CC-1 (8.53%)
  Node CC-2 (8.53%)
  Node JK-1 (8.53%)
  Node JK-2 (8.53%)
  Node WSC (8.53%)
  
  
  *************************
  Routing Time Step Summary
  *************************
  Minimum Time Step           :     0.00 sec
  Average Time Step           :     1.48 sec
  Maximum Time Step           :    30.00 sec
  % of Time in Steady State   :     0.00
  Average Iterations per Step :     2.95
  % of Steps Not Converging   :     8.53
  Time Step Frequencies       :
     30.000 - 13.228 sec      :     0.01 %
     13.228 -  5.833 sec      :     0.12 %
      5.833 -  2.572 sec      :    12.90 %
      2.572 -  1.134 sec      :    41.40 %
      1.134 -  0.500 sec      :    45.58 %
  
  
  ***************************
  Subcatchment Runoff Summary
  ***************************
  
  ------------------------------------------------------------------------------------------------------------------------------
                            Total      Total      Total      Total     Imperv       Perv      Total       Total     Peak  Runoff
                           Precip      Runon       Evap      Infil     Runoff     Runoff     Runoff      Runoff   Runoff   Coeff
  Subcatchment                 mm         mm         mm         mm         mm         mm         mm    10^6 ltr      LPS
  ------------------------------------------------------------------------------------------------------------------------------
  sub0                      61.64       0.00       0.00       1.00      56.08       3.31      59.39        0.05    34.08   0.963
  sub1                      61.64       0.00       0.00       1.72      53.61       5.06      58.67        0.39   239.20   0.952
  sub10                     61.64       0.00       0.00       1.21      55.43       3.72      59.15        0.65   406.27   0.960
  sub11                     61.64       0.00       0.00       1.19      55.45       3.74      59.19        0.69   447.82   0.960
  sub12                     61.64       0.00       0.00       1.94      52.45       6.08      58.53        0.51   355.32   0.950
  sub14                     61.64       0.00       0.00       1.36      54.84       4.19      59.02        0.56   358.61   0.958
  sub15                     61.64       0.00       0.00       5.41      42.18      13.09      55.27        0.95   569.41   0.897
  sub16                     61.64       0.00       0.00       5.57      40.39      14.78      55.17        0.58   378.97   0.895
  sub17                     61.64       0.00       0.00       5.43      40.99      14.30      55.29        0.47   308.11   0.897
  sub2                      61.64       0.00       0.00       7.73      37.93      15.08      53.01        0.49   255.52   0.860
  sub22                     61.64       0.00       0.00       8.21      34.35      18.30      52.66        3.33  1930.50   0.854
  sub23                     61.64       0.00       0.00       6.68      37.97      16.13      54.10        2.58  1581.12   0.878
  sub3                      61.64       0.00       0.00       8.39      37.89      14.42      52.31        1.18   555.99   0.849
  sub4                      61.64       0.00       0.00       1.94      53.44       4.84      58.28        1.22   604.84   0.945
  sub5                      61.64       0.00       0.00       1.06      56.02       3.26      59.28        0.67   411.39   0.962
  sub60                     61.64       0.00       0.00       1.83      53.04       5.57      58.61        0.77   507.88   0.951
  sub61                     61.64       0.00       0.00       2.66      50.03       7.83      57.85        1.06   706.41   0.939
  sub62                     61.64       0.00       0.00       1.22      55.42       3.72      59.14        1.62   997.17   0.959
  sub63                     61.64       0.00       0.00       4.94      42.79      12.94      55.73        1.27   808.00   0.904
  sub64                     61.64       0.00       0.00       2.49      51.19       6.75      57.94        1.39   819.93   0.940
  sub65                     61.64       0.00       0.00       2.16      52.37       5.86      58.23        1.60   916.46   0.945
  sub66                     61.64       0.00       0.00       6.15      42.69      11.73      54.41        2.54  1243.20   0.883
  sub67                     61.64       0.00       0.00       1.17      55.46       3.77      59.23        1.10   755.35   0.961
  sub68                     61.64       0.00       0.00       2.20      51.82       6.43      58.25        1.60  1022.80   0.945
  sub69                     61.64       0.00       0.00       1.99      52.28       7.26      59.54        2.20  1218.39   0.966
  sub7                      61.64       0.00       0.00       1.34      54.85       4.21      59.06        0.20   132.15   0.958
  sub70                     61.64       0.00       0.00       6.65      40.51      14.31      54.82        1.58   699.16   0.889
  sub71                     61.64       0.00       0.00       1.25      55.38       3.68      59.06        1.54   884.21   0.958
  sub72                     61.64       0.00       0.00       1.12      55.92       3.20      59.12        0.81   433.92   0.959
  sub8                      61.64       0.00       0.00       1.35      54.84       4.20      59.03        0.38   243.53   0.958
  sub9                      61.64       0.00       0.00       1.36      54.84       4.19      59.03        0.28   182.15   0.958
  
  
  ******************
  Node Depth Summary
  ******************
  
  ---------------------------------------------------------------------------------
                                 Average  Maximum  Maximum  Time of Max    Reported
                                   Depth    Depth      HGL   Occurrence   Max Depth
  Node                 Type       Meters   Meters   Meters  days hr:min      Meters
  ---------------------------------------------------------------------------------
  HS02004478           JUNCTION     0.20     1.59    10.82     0  02:23        1.59
  HS02004479           JUNCTION     0.27     1.70    10.90     0  02:17        1.67
  HS02004480           JUNCTION     0.23     1.68    10.92     0  02:17        1.63
  HS02004770           JUNCTION     0.24     1.42    11.25     0  02:13        1.42
  HS02004777           JUNCTION     0.27     1.48    11.28     0  02:13        1.48
  HS02004785           JUNCTION     0.16     1.49    11.39     0  02:13        1.35
  HS02004788           JUNCTION     0.13     1.42    11.32     0  02:13        1.35
  HS02004792           JUNCTION     0.18     1.60    11.12     0  02:14        1.60
  HS02004799           JUNCTION     0.29     1.76    10.97     0  02:17        1.76
  HS02004802           JUNCTION     0.29     1.80    10.93     0  02:24        1.80
  HS02004807           JUNCTION     0.27     1.92    11.09     0  02:17        1.92
  HS02004817           JUNCTION     0.57     2.44    11.29     0  02:17        2.38
  HS02004824           JUNCTION     0.15     2.01    11.41     0  02:17        1.96
  HS02004830           JUNCTION     0.15     2.03    11.50     0  02:17        1.92
  HS02004837           JUNCTION     0.13     2.04    11.62     0  02:17        1.83
  HS02004842           JUNCTION     0.42     2.22    11.49     0  02:17        2.15
  HS02004848           JUNCTION     0.11     2.07    11.67     0  02:17        1.83
  HS02004852           JUNCTION     0.11     2.12    11.63     0  02:17        1.88
  HS02004856           JUNCTION     0.17     2.07    11.50     0  02:17        1.94
  HS02004862           JUNCTION     0.12     2.00    11.38     0  02:17        1.92
  HS02004870           JUNCTION     0.12     2.01    11.30     0  02:17        1.91
  HS02004876           JUNCTION     0.16     2.06    11.09     0  02:17        2.00
  HS02004881           JUNCTION     0.10     2.15    11.18     0  02:16        1.74
  HS02004901           JUNCTION     0.25     1.42    11.24     0  02:13        1.42
  WS02001211           JUNCTION     0.63     0.81     5.65     0  02:28        0.81
  WS02001212           JUNCTION     0.37     0.57     5.64     0  02:28        0.57
  WS02001213           JUNCTION     0.59     0.87     5.63     0  02:27        0.87
  WS02003059           JUNCTION     0.65     0.94     5.63     0  02:26        0.94
  WS02003060           JUNCTION     0.38     0.69     5.62     0  02:26        0.69
  WS02003066           JUNCTION     0.23     0.46     6.01     0  02:25        0.46
  WS02003067           JUNCTION     0.54     0.89     6.21     0  02:24        0.89
  WS02003069           JUNCTION     0.42     0.78     5.36     0  02:26        0.78
  WS02003072           JUNCTION     0.48     0.81     5.18     0  02:27        0.81
  WS02003073           JUNCTION     0.29     0.52     4.58     0  02:28        0.52
  WS02004138           JUNCTION     0.13     0.14     7.39     0  00:32        0.14
  WS02004139           JUNCTION     0.56     0.75     5.66     0  02:28        0.75
  WS02004401           JUNCTION     0.75     1.88     7.88     0  02:24        1.86
  WS02004402           JUNCTION     0.78     1.81     7.77     0  02:25        1.81
  WS02004403           JUNCTION     0.79     1.74     7.67     0  02:24        1.73
  WS02004404           JUNCTION     0.85     1.75     7.60     0  02:24        1.73
  WS02004405           JUNCTION     0.84     1.70     7.55     0  02:25        1.69
  WS02004406           JUNCTION     0.84     1.58     7.41     0  02:25        1.58
  WS02004407           JUNCTION     0.26     0.94     7.25     0  02:25        0.94
  WS02004409           JUNCTION     0.52     1.40     7.17     0  02:25        1.38
  WS02004410           JUNCTION     0.53     1.30     7.02     0  02:25        1.30
  WS02004411           JUNCTION     0.54     1.21     6.89     0  02:25        1.20
  WS02004412           JUNCTION     0.54     1.11     6.75     0  02:25        1.11
  WS02004413           JUNCTION     0.68     1.15     6.62     0  02:25        1.15
  WS02006109           JUNCTION     0.93     2.64     9.26     0  02:14        2.64
  WS02006110           JUNCTION     0.88     2.40     8.98     0  02:24        2.39
  WS02006111           JUNCTION     0.39     1.76     8.46     0  02:25        1.76
  WS02006112           JUNCTION     0.96     2.68     8.56     0  00:00        2.39
  WS02006113           JUNCTION     0.46     1.83     8.72     0  02:25        1.83
  WS02006115           JUNCTION     0.66     1.98     8.11     0  02:24        1.97
  WS02006116           JUNCTION     0.74     1.97     8.01     0  02:24        1.96
  WS02006228           JUNCTION     0.97     3.03     9.68     0  02:23        3.03
  WS02006229           JUNCTION     0.97     3.22     9.92     0  02:23        3.22
  WS02006230           JUNCTION     0.90     2.65     9.39     0  02:09        2.65
  WS02006231           JUNCTION     0.64     2.24     9.36     0  02:12        2.24
  WS02006232           JUNCTION     0.74     2.18     9.22     0  02:08        2.18
  WS02006234           JUNCTION     0.62     1.96     9.12     0  02:06        1.96
  WS02006235           JUNCTION     0.64     2.00     9.16     0  02:59        1.93
  WS02006238           JUNCTION     0.66     2.11     9.25     0  02:59        1.93
  WS02006239           JUNCTION     0.61     2.03     9.24     0  02:59        1.98
  WS02006240           JUNCTION     0.56     1.89     9.19     0  02:59        1.84
  WS02006242           JUNCTION     0.60     1.55     8.82     0  01:38        1.55
  WS02006243           JUNCTION     0.49     1.48     8.90     0  01:38        1.48
  WS02006245           JUNCTION     0.48     1.51     9.00     0  01:39        1.51
  WS02006247           JUNCTION     0.49     1.42     8.92     0  01:39        1.42
  WS02006248           JUNCTION     0.44     1.10     8.69     0  01:38        1.10
  WS02006249           JUNCTION     0.46     1.09     8.69     0  01:39        1.09
  WS02006251           JUNCTION     0.53     2.21     9.88     0  02:16        2.13
  WS02006252           JUNCTION     0.38     1.50     9.74     0  01:35        1.50
  WS02006253           JUNCTION     0.59     3.25    10.89     0  02:16        3.02
  WS02006256           JUNCTION     0.94     2.35     9.28     0  00:11        2.35
  WS02006280           JUNCTION     0.26     1.75    10.02     0  02:17        1.73
  WS02006284           JUNCTION     0.52     1.95    10.35     0  02:23        1.93
  WS02006287           JUNCTION     0.26     1.74    10.69     0  02:24        1.74
  WSF200               JUNCTION     0.22     0.52     5.76     0  02:25        0.52
  YS02001580           JUNCTION     0.07     1.05     9.59     0  02:12        0.77
  YS02001583           JUNCTION     0.10     1.14     9.64     0  02:12        0.81
  YS02001586           JUNCTION     0.17     1.13     9.30     0  02:12        1.13
  YS02001590           JUNCTION     0.26     1.40     9.26     0  02:12        1.40
  YS02001593           JUNCTION     0.19     1.39     9.25     0  02:12        1.39
  YS02001596           JUNCTION     0.26     1.69     9.11     0  02:12        1.65
  YS02001600           JUNCTION     0.31     1.87     9.00     0  02:12        1.87
  YS02001601           JUNCTION     0.50     2.06     8.90     0  02:11        2.06
  YS02001602           JUNCTION     0.42     1.87     8.77     0  02:15        1.87
  YS02001605           JUNCTION     0.39     1.77     8.68     0  02:18        1.77
  YS02001607           JUNCTION     0.39     1.65     8.49     0  02:35        1.64
  YS02001610           JUNCTION     0.43     1.68     8.48     0  02:17        1.68
  YS02001613           JUNCTION     0.39     1.67     8.51     0  02:26        1.67
  YS02001616           JUNCTION     0.32     1.61     8.52     0  02:23        1.61
  YS02001619           JUNCTION     0.30     1.60     8.53     0  02:24        1.60
  YS02001622           JUNCTION     0.29     1.58     8.48     0  02:23        1.58
  YS02001625           JUNCTION     0.54     1.78     8.38     0  02:17        1.78
  YS02001629           JUNCTION     0.40     1.85     8.40     0  02:19        1.85
  YS02001633           JUNCTION     0.47     2.01     8.46     0  02:23        2.01
  YS02001641           JUNCTION     0.46     1.95     8.38     0  02:23        1.95
  YS02001644           JUNCTION     0.45     1.92     8.35     0  02:21        1.92
  YS02001647           JUNCTION     0.24     1.79     8.40     0  02:22        1.72
  YS02001649           JUNCTION     0.28     2.04     8.43     0  02:22        1.91
  YS02001652           JUNCTION     0.17     1.86     8.46     0  02:21        1.73
  YS02001655           JUNCTION     0.12     1.80     8.65     0  02:21        1.51
  YS02001658           JUNCTION     0.08     1.62     8.76     0  02:21        1.25
  YS02001661           JUNCTION     0.13     1.03     8.43     0  02:24        1.02
  YS02001664           JUNCTION     0.05     0.42     8.34     0  02:25        0.41
  YS02001745           JUNCTION     0.05     0.71     8.23     0  02:22        0.70
  YS02001748           JUNCTION     0.07     2.15     9.23     0  02:22        1.14
  YS02001751           JUNCTION     0.09     2.04     8.91     0  02:22        1.33
  YS02001754           JUNCTION     0.14     2.02     8.63     0  02:22        1.60
  YS02001757           JUNCTION     0.30     2.08     8.34     0  02:22        1.93
  YS02001759           JUNCTION     0.24     2.08     8.44     0  02:22        1.96
  YS02001762           JUNCTION     0.23     2.02     8.42     0  02:22        1.95
  YS02001765           JUNCTION     0.21     2.00     8.45     0  02:22        1.92
  YS02001767           JUNCTION     0.21     1.97     8.46     0  02:22        1.92
  YS02001770           JUNCTION     0.22     1.95     8.45     0  02:22        1.95
  YS02001774           JUNCTION     0.28     2.00     8.42     0  02:22        1.99
  YS02001779           JUNCTION     0.12     1.68     8.37     0  02:19        1.68
  YS02001783           JUNCTION     0.21     1.34     7.48     0  02:17        1.23
  YS02001784           JUNCTION     0.23     1.17     7.24     0  02:17        1.12
  YS02001786           JUNCTION     0.19     0.91     6.94     0  02:17        0.87
  YS02001788           JUNCTION     0.14     0.62     6.60     0  02:24        0.62
  YS02001790           JUNCTION     0.16     0.72     6.37     0  02:22        0.72
  YS02001791           JUNCTION     0.10     0.44     5.91     0  02:26        0.43
  YS02001793           JUNCTION     0.06     0.26     5.09     0  02:23        0.25
  YS02001882           JUNCTION     0.27     1.66     8.38     0  02:17        1.64
  YS02001884           JUNCTION     0.36     1.75     8.37     0  02:17        1.74
  YS02001887           JUNCTION     0.43     1.82     8.36     0  02:24        1.82
  YS02001890           JUNCTION     0.46     1.81     8.32     0  02:17        1.81
  YS02001895           JUNCTION     0.24     1.57     8.31     0  02:17        1.56
  YS02001898           JUNCTION     0.25     1.57     8.30     0  02:17        1.56
  YS02001901           JUNCTION     0.35     1.68     8.29     0  02:18        1.67
  YS02001904           JUNCTION     0.34     1.64     8.27     0  02:17        1.64
  YS02001907           JUNCTION     0.65     1.96     8.25     0  02:17        1.96
  YS02001910           JUNCTION     0.45     2.01     8.52     0  02:18        1.88
  YS02001915           JUNCTION     0.27     1.97     8.68     0  02:18        1.78
  YS02001918           JUNCTION     0.14     1.81     8.88     0  02:18        1.45
  YS02001920           JUNCTION     0.22     2.11     9.12     0  02:18        1.53
  YS02001923           JUNCTION     0.10     2.03     9.29     0  02:18        1.28
  YS02001926           JUNCTION     0.14     1.90     9.35     0  02:18        1.10
  YS02001929           JUNCTION     0.08     1.78     9.47     0  02:18        0.86
  YS02006553           JUNCTION     0.65     1.98     8.27     0  02:17        1.98
  YS02006556           JUNCTION     0.62     1.97     8.28     0  02:17        1.96
  YS02006558           JUNCTION     0.67     2.02     8.28     0  02:17        2.01
  YS02006561           JUNCTION     0.13     1.05     7.71     0  02:17        0.89
  YS02163301           JUNCTION     0.42     1.91     8.43     0  02:21        1.91
  YS02163601           JUNCTION     0.51     2.02     8.42     0  02:20        2.01
  YS02164001           JUNCTION     0.44     1.94     8.40     0  02:21        1.93
  YSB1154              JUNCTION     0.40     1.94    11.00     0  02:23        1.94
  YSB1171              JUNCTION     0.54     1.95    10.85     0  02:14        1.95
  YSB1174              JUNCTION     0.35     1.82    10.93     0  02:23        1.82
  YSB6556              JUNCTION     0.30     1.77    10.94     0  02:14        1.75
  CC-1                 OUTFALL      0.00     0.00     0.00     0  00:00        0.00
  CC-2                 OUTFALL      0.00     0.00     0.00     0  00:00        0.00
  JK-1                 OUTFALL      0.00     0.00     0.00     0  00:00        0.00
  JK-2                 OUTFALL      0.00     0.00     0.00     0  00:00        0.00
  WSC                  OUTFALL      0.29     0.52     1.19     0  02:28        0.52
  CC-storage           STORAGE      0.41     1.40     6.90     0  03:05        1.40
  JK-storage           STORAGE      0.07     3.00     3.80     0  00:05        3.00
  XR-storage           STORAGE      7.90     9.26     7.26     0  08:00        9.26
  
  
  *******************
  Node Inflow Summary
  *******************
  
  -------------------------------------------------------------------------------------------------
                                  Maximum  Maximum                  Lateral       Total        Flow
                                  Lateral    Total  Time of Max      Inflow      Inflow     Balance
                                   Inflow   Inflow   Occurrence      Volume      Volume       Error
  Node                 Type           LPS      LPS  days hr:min    10^6 ltr    10^6 ltr     Percent
  -------------------------------------------------------------------------------------------------
  HS02004478           JUNCTION      0.00  2304.09     0  02:24           0         8.6      -0.008
  HS02004479           JUNCTION      0.00   393.69     0  02:18           0       0.851       0.086
  HS02004480           JUNCTION      0.00  2060.64     0  02:16           0        6.42       0.035
  HS02004770           JUNCTION   1581.12  1581.12     0  02:25        2.58        2.82       0.092
  HS02004777           JUNCTION      0.03   694.71     0  02:13    0.000864        1.89       0.272
  HS02004785           JUNCTION      0.15   703.49     0  02:13     0.00432        1.89       0.017
  HS02004788           JUNCTION    571.08   850.21     0  02:14       0.999        2.89       0.007
  HS02004792           JUNCTION   1930.78  2748.15     0  02:25        3.34        6.22      -0.003
  HS02004799           JUNCTION    358.61  1715.78     0  02:15       0.562        5.74       0.045
  HS02004802           JUNCTION      0.00  1233.52     0  02:26           0        2.29       0.170
  HS02004807           JUNCTION    447.82  1459.53     0  02:25       0.688        2.38       0.166
  HS02004817           JUNCTION      0.60  1020.93     0  02:26      0.0173        1.75       0.947
  HS02004824           JUNCTION    604.89  1019.94     0  02:26        1.22        1.94       0.028
  HS02004830           JUNCTION      0.15   560.79     0  02:14     0.00432       0.925       0.108
  HS02004837           JUNCTION    412.62   756.52     0  02:17       0.835        1.26       0.039
  HS02004842           JUNCTION      0.00   765.83     0  02:17           0       0.757       1.726
  HS02004848           JUNCTION    555.99  1020.86     0  02:17        1.18        1.77      -0.022
  HS02004852           JUNCTION      0.00   996.44     0  02:17           0        1.61      -0.025
  HS02004856           JUNCTION    182.15  1053.17     0  02:17       0.284         1.9       0.084
  HS02004862           JUNCTION    255.72  1122.44     0  02:17         0.5        2.39       0.003
  HS02004870           JUNCTION    243.53  1223.68     0  02:25       0.377        2.77       0.002
  HS02004876           JUNCTION    239.20  1463.09     0  02:25        0.39        3.16       0.014
  HS02004881           JUNCTION    132.15  1595.70     0  02:25       0.199        3.36       0.003
  HS02004901           JUNCTION    378.97   643.47     0  02:25       0.578       0.899       0.167
  WS02001211           JUNCTION      7.35   203.67     0  02:57       0.212        5.44       0.612
  WS02001212           JUNCTION      0.00   209.34     0  02:58           0        5.41       0.290
  WS02001213           JUNCTION      0.00   213.48     0  02:57           0        5.39       0.332
  WS02003059           JUNCTION      0.00   217.54     0  02:57           0        5.38       0.596
  WS02003060           JUNCTION     16.53  1510.84     0  02:25       0.476        14.7       0.102
  WS02003066           JUNCTION      0.00  1310.27     0  02:25           0        8.92       0.017
  WS02003067           JUNCTION      0.00  1309.64     0  02:25           0        8.92       0.050
  WS02003069           JUNCTION      0.32  1510.92     0  02:26     0.00922        14.7       0.105
  WS02003072           JUNCTION      0.00  1510.68     0  02:27           0        14.7       0.143
  WS02003073           JUNCTION      1.82  1512.72     0  02:27      0.0524        14.7       0.148
  WS02004138           JUNCTION      0.00   190.00     0  00:29           0        5.25       0.054
  WS02004139           JUNCTION      0.32   190.32     0  00:32     0.00924        5.26       0.507
  WS02004401           JUNCTION      0.00  1310.50     0  02:25           0        9.04       0.126
  WS02004402           JUNCTION      0.00  1310.10     0  02:25           0        9.03       0.124
  WS02004403           JUNCTION      0.00  1310.31     0  02:25           0        9.02       0.121
  WS02004404           JUNCTION      0.16  1310.20     0  02:25     0.00467        9.01       0.099
  WS02004405           JUNCTION      0.04  1310.68     0  02:25      0.0011           9       0.143
  WS02004406           JUNCTION      0.00  1310.18     0  02:25           0        8.99       0.241
  WS02004407           JUNCTION      0.00  1310.20     0  02:25           0        8.96       0.018
  WS02004409           JUNCTION      0.00  1309.53     0  02:25           0        8.96       0.038
  WS02004410           JUNCTION      0.00  1309.51     0  02:25           0        8.96       0.056
  WS02004411           JUNCTION      0.00  1309.49     0  02:25           0        8.95       0.070
  WS02004412           JUNCTION      0.00  1309.50     0  02:25           0        8.95       0.093
  WS02004413           JUNCTION      0.00  1309.45     0  02:25           0        8.94       0.159
  WS02006109           JUNCTION      1.23  1308.01     0  00:00      0.0354        8.79       0.135
  WS02006110           JUNCTION      0.00  1123.70     0  02:38           0        8.52      -0.412
  WS02006111           JUNCTION      0.00  1176.04     0  00:00           0        8.55      -0.440
  WS02006112           JUNCTION    308.11  2307.30     0  00:00       0.475        9.06      -0.002
  WS02006113           JUNCTION      0.00  1123.98     0  02:38           0        8.51      -0.529
  WS02006115           JUNCTION      0.00  2152.75     0  00:00           0        9.04       0.053
  WS02006116           JUNCTION      0.00  1310.39     0  02:25           0        9.04       0.023
  WS02006228           JUNCTION      0.00  1287.95     0  02:23           0        8.73       0.075
  WS02006229           JUNCTION      0.00  2304.45     0  02:24           0          11       0.097
  WS02006230           JUNCTION     10.28  1026.00     0  02:23       0.296        4.64       0.123
  WS02006231           JUNCTION      0.00   453.21     0  02:15           0        3.46      -0.137
  WS02006232           JUNCTION      0.00   453.39     0  02:12           0        3.47       0.151
  WS02006234           JUNCTION      0.00   453.17     0  02:16           0        3.46      -0.066
  WS02006235           JUNCTION      0.00   416.06     0  02:25           0        3.49       0.133
  WS02006238           JUNCTION      0.00   415.71     0  02:36           0        3.15      -0.068
  WS02006239           JUNCTION      0.00   415.11     0  02:36           0        3.14      -0.090
  WS02006240           JUNCTION      0.00   415.68     0  02:12           0        3.14       0.037
  WS02006242           JUNCTION      0.00   414.90     0  02:36           0        3.15       0.072
  WS02006243           JUNCTION      0.00   435.93     0  01:38           0        2.77       0.006
  WS02006245           JUNCTION      0.00   461.68     0  01:37           0        2.78       0.315
  WS02006247           JUNCTION      0.00   464.83     0  01:38           0        2.78      -0.018
  WS02006248           JUNCTION      0.00   489.41     0  01:37           0        3.05      -0.029
  WS02006249           JUNCTION      0.00  1361.88     0  02:25           0        5.61       0.112
  WS02006251           JUNCTION      0.08  1630.88     0  02:25     0.00222        5.73       0.025
  WS02006252           JUNCTION      0.00   469.57     0  02:25           0        2.54      -0.387
  WS02006253           JUNCTION     34.08  1630.19     0  02:25      0.0481        3.43       0.016
  WS02006256           JUNCTION      0.00   300.00     0  01:55           0        1.23       0.005
  WS02006280           JUNCTION      0.00  2303.61     0  02:23           0        8.58       0.005
  WS02006284           JUNCTION      0.10  2303.38     0  02:23     0.00275        8.58      -0.001
  WS02006287           JUNCTION      0.00  2305.63     0  02:25           0        8.58       0.009
  WSF200               JUNCTION      0.00  1310.45     0  02:25           0        8.92       0.009
  YS02001580           JUNCTION      0.00    74.37     0  02:11           0     0.00402       1.304
  YS02001583           JUNCTION      0.00   119.92     0  02:11           0      0.0155      -3.970
  YS02001586           JUNCTION    699.16   699.19     0  02:26        1.58         1.6       0.051
  YS02001590           JUNCTION      0.00   317.95     0  02:28           0         1.3      -0.035
  YS02001593           JUNCTION      0.00   318.07     0  02:41           0         1.3       0.012
  YS02001596           JUNCTION      0.00   318.04     0  02:37           0         1.3      -0.001
  YS02001600           JUNCTION      0.00   317.96     0  02:39           0         1.3       0.016
  YS02001601           JUNCTION   1218.39  1535.83     0  02:25         2.2         3.5       0.019
  YS02001602           JUNCTION      0.00   501.21     0  02:48           0         2.3       0.024
  YS02001605           JUNCTION      0.00   501.17     0  02:48           0        2.21       0.031
  YS02001607           JUNCTION      0.00   501.44     0  02:48           0        2.21       0.088
  YS02001610           JUNCTION      0.00   665.93     0  02:26           0        2.37       0.091
  YS02001613           JUNCTION      0.00   502.22     0  02:48           0        1.99       0.084
  YS02001616           JUNCTION      0.00   502.46     0  02:48           0        1.99       0.023
  YS02001619           JUNCTION   1243.20  1243.20     0  02:26        2.54        4.37      -0.001
  YS02001622           JUNCTION      0.00   934.71     0  02:17           0        4.22       0.004
  YS02001625           JUNCTION      0.00  1288.08     0  02:26           0        4.34       0.194
  YS02001629           JUNCTION      0.00   934.63     0  02:16           0        3.68       0.024
  YS02001633           JUNCTION    916.66  1370.41     0  02:17        1.61        5.14       0.067
  YS02001641           JUNCTION      0.00  1369.66     0  02:17           0           5       0.054
  YS02001644           JUNCTION    819.96  1763.21     0  02:17        1.39        6.39       0.050
  YS02001647           JUNCTION      0.00  1762.83     0  02:17           0        6.22       0.004
  YS02001649           JUNCTION      0.00  2038.32     0  02:18           0        7.49       0.004
  YS02001652           JUNCTION      0.00   830.59     0  02:25           0        1.27      -0.082
  YS02001655           JUNCTION      0.15   830.40     0  02:25     0.00443        1.27       0.048
  YS02001658           JUNCTION      0.00   829.83     0  02:25           0        1.27      -0.021
  YS02001661           JUNCTION      0.00   819.33     0  02:25           0        1.27       0.019
  YS02001664           JUNCTION    808.00   808.00     0  02:25        1.27        1.27      -0.003
  YS02001745           JUNCTION    507.88   507.88     0  02:25       0.771       0.771       0.142
  YS02001748           JUNCTION      0.04   575.80     0  02:22      0.0013       0.771      -0.194
  YS02001751           JUNCTION      0.01   520.14     0  02:25    0.000317       0.774       0.054
  YS02001754           JUNCTION      0.26   520.35     0  02:25     0.00749       0.782      -0.135
  YS02001757           JUNCTION      0.00  3509.11     0  02:25           0        10.9       0.033
  YS02001759           JUNCTION    706.45  1421.26     0  02:24        1.06        2.64      -0.007
  YS02001762           JUNCTION      0.00   821.09     0  02:28           0        1.58       0.001
  YS02001765           JUNCTION      0.00   820.26     0  02:28           0        1.58      -0.002
  YS02001767           JUNCTION      0.54   820.11     0  02:28      0.0154        1.58       0.007
  YS02001770           JUNCTION    997.32   997.32     0  02:25        1.63        1.67      -0.015
  YS02001774           JUNCTION      0.00   292.79     0  02:25           0        0.12       0.880
  YS02001779           JUNCTION      0.01   292.82     0  02:25    0.000144      0.0783      -0.402
  YS02001783           JUNCTION      0.00  1163.98     0  02:24           0        4.01       0.006
  YS02001784           JUNCTION      1.06  1164.92     0  02:24      0.0305        4.04       0.012
  YS02001786           JUNCTION      0.06  1164.97     0  02:24     0.00162        4.05       0.017
  YS02001788           JUNCTION      0.07  1164.63     0  02:24     0.00204        4.05       0.007
  YS02001790           JUNCTION      0.15  1184.09     0  02:24     0.00446        4.05       0.014
  YS02001791           JUNCTION      0.00  1287.86     0  02:22           0        4.05      -0.014
  YS02001793           JUNCTION      0.00  1255.01     0  02:24           0        4.05       0.002
  YS02001882           JUNCTION      0.00    38.69     0  02:15           0      0.0125       4.768
  YS02001884           JUNCTION      0.00    38.69     0  02:15           0      0.0481       5.436
  YS02001887           JUNCTION    755.80   755.97     0  02:25        1.12        1.15       0.388
  YS02001890           JUNCTION      0.00   756.55     0  02:25           0        1.11       0.452
  YS02001895           JUNCTION      0.00   517.31     0  02:27           0        1.04       0.146
  YS02001898           JUNCTION      0.00   518.07     0  02:28           0        1.04       0.027
  YS02001901           JUNCTION      0.00   517.78     0  02:28           0        1.04       0.302
  YS02001904           JUNCTION      0.00   517.99     0  02:28           0        1.05       0.265
  YS02001907           JUNCTION      0.00  1854.60     0  02:25           0        3.48       0.498
  YS02001910           JUNCTION      0.00  1339.09     0  02:25           0        2.44       0.293
  YS02001915           JUNCTION    884.23  1338.79     0  02:25        1.55        2.47       0.064
  YS02001918           JUNCTION      0.00   455.16     0  02:25           0        0.94       0.021
  YS02001920           JUNCTION      2.87   454.58     0  02:25      0.0827       0.928       0.105
  YS02001923           JUNCTION      0.04   451.44     0  02:25     0.00109       0.834      -0.026
  YS02001926           JUNCTION      0.05   452.22     0  02:25      0.0015        0.82       0.033
  YS02001929           JUNCTION    433.92   433.92     0  02:26       0.813       0.813      -0.067
  YS02006553           JUNCTION      0.00   802.56     0  02:38           0        2.43       0.488
  YS02006556           JUNCTION      0.00   803.35     0  02:38           0        2.44       0.327
  YS02006558           JUNCTION   1023.68  1164.10     0  02:23        1.63        4.04       0.090
  YS02006561           JUNCTION      0.00  1164.11     0  02:24           0        4.01      -0.003
  YS02163301           JUNCTION      0.00   934.07     0  02:16           0        3.67       0.042
  YS02163601           JUNCTION      0.11  1370.16     0  02:17     0.00317           5       0.099
  YS02164001           JUNCTION      0.00  1370.39     0  02:17           0           5       0.047
  YSB1154              JUNCTION    411.39   411.39     0  02:25       0.672       0.673       0.220
  YSB1171              JUNCTION      0.00   989.51     0  02:25           0        1.27       0.471
  YSB1174              JUNCTION    355.32   355.32     0  02:25       0.512       0.512       0.246
  YSB6556              JUNCTION      0.00   411.51     0  02:25           0       0.673       0.184
  CC-1                 OUTFALL       0.00   683.00     0  00:05           0        7.01       0.000
  CC-2                 OUTFALL       0.00   683.00     0  00:05           0        4.57       0.000
  JK-1                 OUTFALL       0.00  1000.00     0  00:05           0        2.49       0.000
  JK-2                 OUTFALL       0.00  1000.00     0  02:16           0        2.53       0.000
  WSC                  OUTFALL       0.00  1513.18     0  02:28           0        14.7       0.000
  CC-storage           STORAGE       0.00  3508.79     0  02:25           0        13.1      -6.399
  JK-storage           STORAGE       0.00  1302.14     0  02:23           0         4.2     -32.809
  XR-storage           STORAGE     200.00   200.00     0  00:00        5.76        6.36       0.001
  
  
  **********************
  Node Surcharge Summary
  **********************
  
  Surcharging occurs when water rises above the top of the highest conduit.
  ---------------------------------------------------------------------
                                               Max. Height   Min. Depth
                                   Hours       Above Crown    Below Rim
  Node                 Type      Surcharged         Meters       Meters
  ---------------------------------------------------------------------
  HS02004478           JUNCTION        0.46          0.668        0.272
  HS02004479           JUNCTION        0.59          0.901        0.149
  HS02004480           JUNCTION        0.63          0.965        0.135
  HS02004770           JUNCTION        0.53          0.720        0.000
  HS02004777           JUNCTION        0.54          0.780        0.000
  HS02004785           JUNCTION        0.49          0.790        0.000
  HS02004788           JUNCTION        0.48          0.720        0.000
  HS02004792           JUNCTION        0.60          0.900        0.000
  HS02004799           JUNCTION        0.74          1.060        0.000
  HS02004802           JUNCTION        0.65          1.091        0.119
  HS02004807           JUNCTION        0.63          1.220        0.000
  HS02004817           JUNCTION        1.22          1.740        0.000
  HS02004824           JUNCTION        0.48          1.310        0.000
  HS02004830           JUNCTION        0.45          1.330        0.000
  HS02004837           JUNCTION        0.41          1.340        0.000
  HS02004842           JUNCTION        0.55          1.520        0.000
  HS02004848           JUNCTION        0.37          1.370        0.000
  HS02004852           JUNCTION        0.39          1.420        0.000
  HS02004856           JUNCTION        0.37          1.300        0.000
  HS02004862           JUNCTION        0.41          1.300        0.000
  HS02004870           JUNCTION        0.43          1.309        0.091
  HS02004876           JUNCTION        0.48          1.364        0.196
  HS02004881           JUNCTION        0.46          1.450        0.000
  HS02004901           JUNCTION        0.54          0.720        0.000
  WS02004401           JUNCTION        1.68          0.876        0.784
  WS02004402           JUNCTION        1.70          0.814        0.926
  WS02004403           JUNCTION        1.71          0.741        1.289
  WS02004404           JUNCTION        1.79          0.750        2.030
  WS02004405           JUNCTION        1.77          0.699        2.101
  WS02004406           JUNCTION        1.75          0.584        1.866
  WS02004409           JUNCTION        1.08          0.398        1.962
  WS02004410           JUNCTION        1.02          0.303        2.237
  WS02004411           JUNCTION        0.87          0.208        2.322
  WS02004412           JUNCTION        0.77          0.108        2.202
  WS02004413           JUNCTION        1.31          0.146        2.054
  WS02006109           JUNCTION        2.11          1.820        0.000
  WS02006110           JUNCTION        1.87          1.489        0.361
  WS02006111           JUNCTION        1.26          0.945        0.925
  WS02006112           JUNCTION        1.94          1.680        0.000
  WS02006113           JUNCTION        1.28          1.030        0.900
  WS02006115           JUNCTION        1.53          0.966        1.284
  WS02006116           JUNCTION        1.54          0.908        1.382
  WS02006228           JUNCTION        2.10          2.200        0.000
  WS02006229           JUNCTION        0.94          1.045        0.025
  WS02006230           JUNCTION        1.79          1.570        0.000
  WS02006231           JUNCTION        1.83          1.530        0.000
  WS02006232           JUNCTION        1.94          1.480        0.000
  WS02006234           JUNCTION        1.86          1.240        0.000
  WS02006235           JUNCTION        1.87          1.290        0.000
  WS02006238           JUNCTION        1.89          1.390        0.040
  WS02006239           JUNCTION        1.86          1.290        0.000
  WS02006240           JUNCTION        1.86          1.184        0.206
  WS02006242           JUNCTION        1.88          0.820        0.000
  WS02006243           JUNCTION        1.77          0.770        0.000
  WS02006245           JUNCTION        1.73          0.803        0.047
  WS02006247           JUNCTION        1.73          0.714        0.046
  WS02006248           JUNCTION        1.67          0.380        0.000
  WS02006249           JUNCTION        1.68          0.390        0.000
  WS02006251           JUNCTION        1.51          1.176        0.004
  WS02006252           JUNCTION        1.65          1.100        0.000
  WS02006253           JUNCTION        1.52          2.209        0.271
  WS02006256           JUNCTION        7.40          2.050        0.000
  WS02006280           JUNCTION        0.76          0.696        0.084
  WS02006284           JUNCTION        0.67          0.671        0.129
  WS02006287           JUNCTION        0.56          0.740        0.150
  YS02001580           JUNCTION        0.58          0.450        0.000
  YS02001583           JUNCTION        0.58          0.500        0.000
  YS02001586           JUNCTION        0.68          0.510        0.000
  YS02001590           JUNCTION        0.76          0.750        0.000
  YS02001593           JUNCTION        0.76          0.771        0.069
  YS02001596           JUNCTION        0.89          0.958        0.112
  YS02001600           JUNCTION        1.05          1.190        0.000
  YS02001601           JUNCTION        1.42          1.440        0.000
  YS02001602           JUNCTION        1.29          1.270        0.000
  YS02001605           JUNCTION        1.23          1.175        0.005
  YS02001607           JUNCTION        0.70          0.646        0.034
  YS02001610           JUNCTION        0.74          0.680        0.000
  YS02001613           JUNCTION        0.70          0.666        0.034
  YS02001616           JUNCTION        0.65          0.607        0.003
  YS02001619           JUNCTION        0.64          0.603        0.007
  YS02001622           JUNCTION        0.63          0.575        0.045
  YS02001625           JUNCTION        0.83          0.780        0.000
  YS02001629           JUNCTION        0.55          0.470        0.000
  YS02001633           JUNCTION        0.84          0.985        0.075
  YS02001641           JUNCTION        0.73          0.948        0.152
  YS02001644           JUNCTION        0.67          0.920        0.000
  YS02001647           JUNCTION        0.42          0.787        0.113
  YS02001649           JUNCTION        0.47          1.036        0.014
  YS02001652           JUNCTION        0.32          0.829        0.301
  YS02001655           JUNCTION        0.22          0.796        0.404
  YS02001658           JUNCTION        0.14          0.622        0.678
  YS02001748           JUNCTION        0.06          1.072        0.118
  YS02001751           JUNCTION        0.16          1.036        0.164
  YS02001754           JUNCTION        0.22          0.972        0.178
  YS02001757           JUNCTION        0.48          1.079        0.131
  YS02001759           JUNCTION        0.41          1.077        0.133
  YS02001762           JUNCTION        0.38          1.023        0.127
  YS02001765           JUNCTION        0.35          0.998        0.102
  YS02001767           JUNCTION        0.33          0.974        0.056
  YS02001770           JUNCTION        0.32          0.920        0.000
  YS02001774           JUNCTION        0.37          0.998        0.052
  YS02001779           JUNCTION        0.24          0.680        0.000
  YS02001783           JUNCTION        0.52          0.542        1.058
  YS02001784           JUNCTION        0.49          0.369        1.121
  YS02001786           JUNCTION        0.38          0.105        1.325
  YS02001882           JUNCTION        0.46          0.659        0.171
  YS02001884           JUNCTION        0.47          0.691        0.179
  YS02001887           JUNCTION        0.51          0.774        0.176
  YS02001890           JUNCTION        0.52          0.760        0.000
  YS02001895           JUNCTION        0.45          0.566        0.184
  YS02001898           JUNCTION        0.44          0.536        0.204
  YS02001901           JUNCTION        0.49          0.678        0.192
  YS02001904           JUNCTION        0.48          0.641        0.209
  YS02001907           JUNCTION        0.78          0.950        0.000
  YS02001910           JUNCTION        0.55          1.011        0.089
  YS02001915           JUNCTION        0.46          0.966        0.034
  YS02001918           JUNCTION        0.37          0.810        0.000
  YS02001920           JUNCTION        0.38          1.114        0.026
  YS02001923           JUNCTION        0.06          0.820        0.000
  YS02001926           JUNCTION        0.11          0.900        0.000
  YS02001929           JUNCTION        0.01          0.780        0.000
  YS02006553           JUNCTION        0.80          0.984        0.206
  YS02006556           JUNCTION        0.65          0.932        0.418
  YS02006558           JUNCTION        0.64          0.916        0.484
  YS02006561           JUNCTION        0.34          0.252        0.898
  YS02163301           JUNCTION        0.82          0.912        0.118
  YS02163601           JUNCTION        0.88          1.024        0.056
  YS02164001           JUNCTION        0.74          0.943        0.157
  YSB1154              JUNCTION        0.87          1.240        0.160
  YSB1171              JUNCTION        0.87          1.100        0.000
  YSB1174              JUNCTION        0.78          1.117        0.133
  YSB6556              JUNCTION        0.71          1.067        0.033
  
  
  *********************
  Node Flooding Summary
  *********************
  
  Flooding refers to all water that overflows a node, whether it ponds or not.
  --------------------------------------------------------------------------
                                                             Total   Maximum
                                 Maximum   Time of Max       Flood    Ponded
                        Hours       Rate    Occurrence      Volume     Depth
  Node                 Flooded       LPS   days hr:min    10^6 ltr    Meters
  --------------------------------------------------------------------------
  HS02004770              0.37   1071.07      0  02:25       0.608     0.000
  HS02004777              0.01     32.18      0  02:13       0.000     0.000
  HS02004785              0.01     62.85      0  02:13       0.000     0.000
  HS02004788              0.01    172.47      0  02:13       0.001     0.000
  HS02004792              0.35   1605.67      0  02:25       1.044     0.000
  HS02004799              0.18    208.31      0  02:24       0.075     0.000
  HS02004807              0.07    230.78      0  02:25       0.037     0.000
  HS02004817              0.01      8.21      0  02:17       0.000     0.000
  HS02004824              0.01     19.32      0  02:17       0.000     0.000
  HS02004830              0.01     29.73      0  02:17       0.000     0.000
  HS02004837              0.01     92.63      0  02:17       0.000     0.000
  HS02004842              0.01    161.07      0  02:17       0.001     0.000
  HS02004848              0.01    344.04      0  02:17       0.001     0.000
  HS02004852              0.01    290.07      0  02:17       0.000     0.000
  HS02004856              0.01    126.94      0  02:17       0.000     0.000
  HS02004862              0.01    278.45      0  02:17       0.000     0.000
  HS02004881              0.01    138.20      0  02:16       0.000     0.000
  HS02004901              0.43    643.42      0  02:25       0.656     0.000
  WS02006109              0.40    286.04      0  02:25       0.236     0.000
  WS02006112              0.01   1153.65      0  00:00       0.035     0.000
  WS02006228              0.01      0.66      0  02:23       0.000     0.000
  WS02006230              0.68    573.27      0  02:24       0.910     0.000
  WS02006231              0.01      0.18      0  02:12       0.000     0.000
  WS02006232              0.19      0.59      0  02:39       0.000     0.000
  WS02006234              0.74    128.51      0  02:15       0.253     0.000
  WS02006235              0.01     32.04      0  02:59       0.000     0.000
  WS02006239              0.01      6.97      0  02:59       0.000     0.000
  WS02006242              0.88    137.12      0  02:19       0.375     0.000
  WS02006243              0.01      9.82      0  01:38       0.000     0.000
  WS02006248              1.23    339.64      0  02:06       1.282     0.000
  WS02006249              1.51   1300.98      0  02:25       3.574     0.000
  WS02006252              0.30    469.25      0  02:25       0.262     0.000
  WS02006256              0.98    286.52      0  01:55       0.607     0.000
  YS02001580              0.01     28.82      0  02:12       0.000     0.000
  YS02001583              0.01     53.31      0  02:12       0.000     0.000
  YS02001586              0.44    381.70      0  02:26       0.285     0.000
  YS02001590              0.01      6.95      0  02:12       0.000     0.000
  YS02001600              0.01      1.86      0  02:12       0.000     0.000
  YS02001601              0.61   1137.97      0  02:25       1.199     0.000
  YS02001602              0.44     61.99      0  02:22       0.089     0.000
  YS02001610              0.38    665.70      0  02:26       0.529     0.000
  YS02001625              0.33   1287.99      0  02:26       0.796     0.000
  YS02001629              0.09     87.51      0  02:22       0.016     0.000
  YS02001644              0.13    608.18      0  02:25       0.162     0.000
  YS02001770              0.01      4.43      0  02:22       0.000     0.000
  YS02001779              0.10    292.75      0  02:25       0.061     0.000
  YS02001890              0.15    241.76      0  02:25       0.060     0.000
  YS02001907              0.31   1709.22      0  02:25       1.041     0.000
  YS02001918              0.01     95.95      0  02:18       0.000     0.000
  YS02001923              0.01     99.79      0  02:18       0.000     0.000
  YS02001926              0.01     37.47      0  02:18       0.000     0.000
  YS02001929              0.01    206.64      0  02:18       0.000     0.000
  YSB1171                 0.27    989.22      0  02:25       0.509     0.000
  
  
  **********************
  Storage Volume Summary
  **********************
  
  ------------------------------------------------------------------------------------------------
                         Average    Avg   Evap  Exfil     Maximum    Max    Time of Max    Maximum
                          Volume   Pcnt   Pcnt   Pcnt      Volume   Pcnt     Occurrence    Outflow
  Storage Unit           1000 m   Full   Loss   Loss     1000 m   Full    days hr:min        LPS
  ------------------------------------------------------------------------------------------------
  CC-storage               1.141   17.8    0.0    0.0       3.900   60.8       0  03:05    1566.00
  JK-storage               0.003    1.1    0.0    0.0       0.151   51.7       0  00:05    2300.00
  XR-storage               0.948   65.8    0.0    0.0       1.111   77.1       0  08:00     190.00
  
  
  ***********************
  Outfall Loading Summary
  ***********************
  
  -----------------------------------------------------------
                         Flow       Avg       Max       Total
                         Freq      Flow      Flow      Volume
  Outfall Node           Pcnt       LPS       LPS    10^6 ltr
  -----------------------------------------------------------
  CC-1                  54.67    623.58    683.00       7.012
  CC-2                  73.15    341.02    683.00       4.572
  JK-1                  79.42    131.07   1000.00       2.488
  JK-2                  47.94    222.16   1000.00       2.532
  WSC                   99.99    597.14   1513.18      14.724
  -----------------------------------------------------------
  System                71.04   1914.97   3854.41      31.328
  
  
  ********************
  Link Flow Summary
  ********************
  
  -----------------------------------------------------------------------------
                                 Maximum  Time of Max   Maximum    Max/    Max/
                                  |Flow|   Occurrence   |Veloc|    Full    Full
  Link                 Type          LPS  days hr:min     m/sec    Flow   Depth
  -----------------------------------------------------------------------------
  1                    CONDUIT   1513.18     0  02:28      3.70    0.53    0.52
  HS02004478WS02006287 CONDUIT   2305.63     0  02:25      2.57    0.65    1.00
  HS02004479HS02004480 CONDUIT    395.05     0  02:18      0.56    0.38    1.00
  HS02004480HS02004478 CONDUIT   2059.72     0  02:16      2.94    8.68    1.00
  HS02004770HS02004777 CONDUIT    694.68     0  02:13      0.99    1.27    1.00
  HS02004777HS02004785 CONDUIT    703.34     0  02:13      1.06    0.87    1.00
  HS02004785HS02004788 CONDUIT    633.54     0  02:14      1.35    4.78    1.00
  HS02004788HS02004792 CONDUIT    849.10     0  02:14      1.46    0.56    1.00
  HS02004792HS02004799 CONDUIT   1571.30     0  02:15      2.24    0.96    1.00
  HS02004799HS02004480 CONDUIT   1715.01     0  02:15      2.45    2.17    1.00
  HS02004802HS02004478 CONDUIT   1233.59     0  02:26      1.76    1.09    1.00
  HS02004807HS02004802 CONDUIT   1233.52     0  02:26      1.76    2.36    1.00
  HS02004817HS02004807 CONDUIT   1021.27     0  02:26      1.46    0.60    1.00
  HS02004817HS02004824 CONDUIT   1020.33     0  02:26      1.46    0.46    1.00
  HS02004824HS02004830 CONDUIT    560.64     0  02:14      0.81    0.73    1.00
  HS02004830HS02004837 CONDUIT    564.90     0  02:14      0.89    0.56    1.00
  HS02004837HS02004842 CONDUIT    765.83     0  02:17      1.09    0.46    1.00
  HS02004842HS02004848 CONDUIT    765.90     0  02:17      1.17    0.45    1.00
  HS02004848HS02004852 CONDUIT    996.44     0  02:17      1.55    1.12    1.00
  HS02004852HS02004856 CONDUIT    967.08     0  02:17      1.44    1.11    1.00
  HS02004856HS02004862 CONDUIT   1007.61     0  02:17      1.67    1.00    1.00
  HS02004862HS02004870 CONDUIT   1088.87     0  02:16      1.87    1.18    1.00
  HS02004870HS02004876 CONDUIT   1224.11     0  02:25      1.75    0.81    1.00
  HS02004876HS02004881 CONDUIT   1463.77     0  02:25      2.41   15.57    1.00
  HS02004881HS02006253 CONDUIT   1596.22     0  02:25      2.28    0.31    1.00
  HS02004901HS02004770 CONDUIT    265.79     0  02:36      0.38    1.00    1.00
  WS02001211WS02001212 CONDUIT    209.34     0  02:58      0.54    0.16    0.69
  WS02001212WS02001213 CONDUIT    213.48     0  02:57      1.03    0.33    0.56
  WS02001213WS02003059 CONDUIT    217.54     0  02:57      0.47    0.36    0.89
  WS02003059WS02003060 CONDUIT    223.09     0  02:56      0.66    0.15    0.81
  WS02003060WS02003069 CONDUIT   1510.60     0  02:26      2.09    0.59    0.61
  WS02003066WSF200     CONDUIT   1310.45     0  02:25      3.25    0.22    0.39
  WS02003067WS02003066 CONDUIT   1310.27     0  02:25      2.01    0.42    0.56
  WS02003069WS02003072 CONDUIT   1510.68     0  02:27      1.90    0.73    0.66
  WS02003072WS02003073 CONDUIT   1510.90     0  02:27      2.06    3.26    0.62
  WS02004138WS02004139 CONDUIT    190.00     0  00:32      2.17    0.04    0.42
  WS02004139WS02001211 CONDUIT    196.32     0  02:57      0.55    0.25    0.61
  WS02004401WS02004402 CONDUIT   1310.10     0  02:25      2.07    1.57    1.00
  WS02004402WS02004403 CONDUIT   1310.31     0  02:25      1.84    1.88    1.00
  WS02004403WS02004404 CONDUIT   1310.04     0  02:25      1.68    0.95    1.00
  WS02004404WS02004405 CONDUIT   1310.64     0  02:25      1.86   12.84    1.00
  WS02004405WS02004406 CONDUIT   1310.18     0  02:25      1.80    2.58    1.00
  WS02004406WS02004407 CONDUIT   1310.20     0  02:25      1.70    0.59    0.97
  WS02004407WS02004409 CONDUIT   1309.53     0  02:25      1.80    0.46    0.97
  WS02004409WS02004410 CONDUIT   1309.51     0  02:25      1.67    1.69    1.00
  WS02004410WS02004411 CONDUIT   1309.49     0  02:25      1.67    1.79    1.00
  WS02004411WS02004412 CONDUIT   1309.50     0  02:25      1.67    1.86    1.00
  WS02004412WS02004413 CONDUIT   1309.45     0  02:25      1.67    0.88    1.00
  WS02004413WS02003067 CONDUIT   1309.64     0  02:25      2.02    0.56    0.77
  WS02006109WS02006110 CONDUIT   1306.78     0  00:00      3.15    2.51    1.00
  WS02006110WS02006113 CONDUIT   1123.98     0  02:38      2.24    1.02    1.00
  WS02006111WS02006112 CONDUIT   2307.30     0  00:00      9.18    1.10    1.00
  WS02006112WS02006115 CONDUIT   2152.75     0  00:00      2.85    1.27    1.00
  WS02006113WS02006111 CONDUIT   1176.04     0  00:00      2.70    1.41    1.00
  WS02006115WS02006116 CONDUIT   1310.39     0  02:25      1.81    1.68    1.00
  WS02006116WS02004401 CONDUIT   1310.50     0  02:25      2.21    1.81    1.00
  WS02006228WS02006109 CONDUIT   1287.74     0  02:24      2.56    5.63    1.00
  WS02006229WS02006228 CONDUIT   1287.95     0  02:23      2.56    4.27    1.00
  WS02006230WS02006229 CONDUIT   1015.72     0  02:23      2.64   22.60    1.00
  WS02006231WS02006230 CONDUIT    453.21     0  02:15      1.29    6.87    1.00
  WS02006232WS02006231 CONDUIT    453.39     0  02:12      1.18    0.95    1.00
  WS02006234WS02006232 CONDUIT    453.17     0  02:16      1.18    0.92    1.00
  WS02006235WS02006234 CONDUIT    421.08     0  01:39      1.09    4.44    1.00
  WS02006238WS02006235 CONDUIT    415.71     0  02:36      1.23    0.93    1.00
  WS02006239WS02006238 CONDUIT    415.11     0  02:36      1.08    1.33    1.00
  WS02006240WS02006239 CONDUIT    415.68     0  02:12      1.09    1.31    1.00
  WS02006242WS02006240 CONDUIT    414.90     0  02:36      1.08    1.65    1.00
  WS02006243WS02006242 CONDUIT    385.24     0  01:38      1.15    0.82    1.00
  WS02006245WS02006243 CONDUIT    435.93     0  01:38      1.42    1.29    1.00
  WS02006247WS02006245 CONDUIT    461.68     0  01:37      1.47    3.66    1.00
  WS02006248WS02006247 CONDUIT    464.83     0  01:38      1.36    1.01    1.00
  WS02006249WS02006248 CONDUIT    489.41     0  01:37      1.44    2.68    1.00
  WS02006251WS02006249 CONDUIT   1361.88     0  02:25      3.54    3.93    1.00
  WS02006252WS02006251 CONDUIT   1298.45     0  00:05     20.66    4.77    1.00
  WS02006253WS02006251 CONDUIT   1630.81     0  02:25      4.24    4.89    1.00
  WS02006256WS02006235 CONDUIT    208.18     0  01:45      2.95    2.20    1.00
  WS02006280WS02006229 CONDUIT   2304.45     0  02:24      3.99    0.49    1.00
  WS02006284WS02006280 CONDUIT   2303.61     0  02:23      2.96    0.96    1.00
  WS02006287WS02006284 CONDUIT   2303.28     0  02:23      2.93    1.07    1.00
  WSF200WS02003060     CONDUIT   1310.76     0  02:25      2.29    0.29    0.50
  YS02001580YS02001583 CONDUIT     74.37     0  02:11      0.52    0.29    1.00
  YS02001583YS02001586 CONDUIT    119.92     0  02:11      0.52    0.18    1.00
  YS02001586YS02001590 CONDUIT    317.95     0  02:28      1.26    0.56    1.00
  YS02001590YS02001593 CONDUIT    318.07     0  02:41      1.12    2.00    1.00
  YS02001593YS02001596 CONDUIT    318.04     0  02:37      1.76    0.50    1.00
  YS02001596YS02001600 CONDUIT    317.96     0  02:39      1.27    0.62    1.00
  YS02001600YS02001601 CONDUIT    317.92     0  02:38      1.12    0.55    1.00
  YS02001601YS02001602 CONDUIT    501.21     0  02:48      1.77    1.81    1.00
  YS02001602YS02001605 CONDUIT    501.17     0  02:48      1.77   10.61    1.00
  YS02001605YS02001607 CONDUIT    501.44     0  02:48      1.77    2.75    1.00
  YS02001607YS02001610 CONDUIT    501.94     0  02:48      0.64    0.48    1.00
  YS02001610YS02001613 CONDUIT    502.22     0  02:48      0.64    0.58    1.00
  YS02001613YS02001616 CONDUIT    502.46     0  02:48      0.64    0.43    1.00
  YS02001616YS02001619 CONDUIT    502.52     0  02:48      0.66    0.87    1.00
  YS02001619YS02001622 CONDUIT    934.71     0  02:17      1.19    1.38    1.00
  YS02001622YS02001625 CONDUIT    934.36     0  02:17      1.19    0.50    1.00
  YS02001625YS02001629 CONDUIT    934.63     0  02:16      1.19    0.44    1.00
  YS02001629YS02163301 CONDUIT    934.07     0  02:16      1.19    1.15    1.00
  YS02001633YS02163601 CONDUIT   1370.05     0  02:17      1.74    1.44    1.00
  YS02001641YS02001644 CONDUIT   1369.99     0  02:17      1.74    4.43    1.00
  YS02001644YS02001647 CONDUIT   1762.83     0  02:17      2.25    1.04    1.00
  YS02001647YS02001649 CONDUIT   1773.68     0  02:17      2.30    0.94    1.00
  YS02001649YS02001757 CONDUIT   2039.41     0  02:18      2.60    1.24    1.00
  YS02001652YS02001649 CONDUIT    830.49     0  02:25      1.06    0.41    1.00
  YS02001655YS02001652 CONDUIT    830.59     0  02:25      1.21    0.40    1.00
  YS02001658YS02001655 CONDUIT    830.25     0  02:25      1.81    0.35    1.00
  YS02001661YS02001658 CONDUIT    829.83     0  02:25      2.28    0.33    0.98
  YS02001664YS02001661 CONDUIT    819.33     0  02:25      2.27    0.26    0.71
  YS02001745YS02001748 CONDUIT    575.75     0  02:22      2.13    0.22    0.85
  YS02001748YS02001751 CONDUIT    520.13     0  02:25      1.64    0.26    1.00
  YS02001751YS02001754 CONDUIT    520.09     0  02:25      1.29    0.25    1.00
  YS02001754YS02001757 CONDUIT    520.65     0  02:25      0.66    0.21    1.00
  YS02001757CaochengTiaoxuchi CONDUIT   3508.79     0  02:25      6.40    1.52    1.00
  YS02001759YS02001757 CONDUIT   1422.29     0  02:24      1.81    1.01    1.00
  YS02001762YS02001759 CONDUIT    822.33     0  02:28      1.05    0.95    1.00
  YS02001765YS02001762 CONDUIT    821.09     0  02:28      1.05    0.77    1.00
  YS02001767YS02001765 CONDUIT    820.26     0  02:28      1.04    1.03    1.00
  YS02001770YS02001767 CONDUIT    819.57     0  02:28      1.04    3.25    1.00
  YS02001774YS02001770 CONDUIT    292.79     0  02:25      0.37    0.19    1.00
  YS02001779YS02001774 CONDUIT    292.82     0  02:25      0.37    0.15    1.00
  YS02001783YS02001784 CONDUIT   1163.86     0  02:24      2.32    1.60    1.00
  YS02001784YS02001785 CONDUIT   1164.92     0  02:24      2.32    2.71    1.00
  YS02001786YS02001788 CONDUIT   1164.56     0  02:24      2.49    2.24    0.89
  YS02001788YS02001790 CONDUIT   1183.94     0  02:24      2.73    0.87    0.84
  YS02001790YS02001791 CONDUIT   1287.86     0  02:22      3.43    1.40    0.70
  YS02001791YS02001793 CONDUIT   1255.01     0  02:24      6.77    0.54    0.43
  YS02001793JiankangQianchi CONDUIT   1302.14     0  02:23     24.57    0.10    0.61
  YS02001882YS02001884 CONDUIT     38.69     0  02:15      0.12    0.04    1.00
  YS02001884YS02001887 CONDUIT     38.69     0  02:15      0.09    0.05    1.00
  YS02001887YS02001890 CONDUIT    756.55     0  02:25      0.96    1.29    1.00
  YS02001890YS02001895 CONDUIT    517.31     0  02:27      0.66    0.24    1.00
  YS02001895YS02001898 CONDUIT    518.07     0  02:28      0.66    0.90    1.00
  YS02001898YS02001901 CONDUIT    517.78     0  02:28      0.66    0.33    1.00
  YS02001901YS02001904 CONDUIT    517.99     0  02:28      0.66    0.80    1.00
  YS02001904YS02001907 CONDUIT    517.39     0  02:28      0.66    0.18    1.00
  YS02001907YS02006553 CONDUIT    802.56     0  02:38      0.89    0.94    1.00
  YS02001910YS02001907 CONDUIT   1339.00     0  02:25      1.70    0.75    1.00
  YS02001915YS02001910 CONDUIT   1339.09     0  02:25      1.70    0.67    1.00
  YS02001918YS02001915 CONDUIT    455.52     0  02:25      0.58    0.25    1.00
  YS02001920YS02001918 CONDUIT    455.16     0  02:25      0.67    0.44    1.00
  YS02001923YS02001920 CONDUIT    451.71     0  02:25      0.69    0.20    1.00
  YS02001926YS02001923 CONDUIT    451.40     0  02:25      0.94    0.64    1.00
  YS02001929YS02001926 CONDUIT    452.17     0  02:25      1.08    0.21    1.00
  YS02006553YS02006556 CONDUIT    803.35     0  02:38      1.02    0.69    1.00
  YS02006556YS02006558 CONDUIT    805.09     0  02:38      1.03    0.64    1.00
  YS02006558YS02006561 CONDUIT   1164.11     0  02:24      4.12    2.57    1.00
  YS02006561YS02001783 CONDUIT   1163.98     0  02:24      2.32    0.60    1.00
  YS02163301YS02001633 CONDUIT    933.92     0  02:16      1.19    0.88    1.00
  YS02163601YS02164001 CONDUIT   1370.39     0  02:17      1.74    1.21    1.00
  YS02164001YS02001641 CONDUIT   1369.66     0  02:17      1.74    1.87    1.00
  YSB1154YSB6556       CONDUIT    411.51     0  02:25      1.07    0.74    1.00
  YSB1171HS02004479    CONDUIT    393.69     0  02:18      0.78    0.26    1.00
  YSB1174YSB1171       CONDUIT    355.40     0  02:25      0.92    0.54    1.00
  YSB6556YSB1171       CONDUIT    411.80     0  02:25      1.07    0.42    1.00
  CC-R1                PUMP       683.00     0  00:05              1.00
  CC-R2                PUMP       683.00     0  00:05              1.00
  CC-S1                PUMP       200.00     0  01:35              1.00
  CC-S2                PUMP       200.00     0  00:05              1.00
  JK-R1                PUMP      1000.00     0  00:05              1.00
  JK-R2                PUMP      1000.00     0  02:16              1.00
  JK-S                 PUMP       300.00     0  01:55              1.00
  XR-1                 PUMP        95.00     0  00:10              1.00
  XR-2                 PUMP        95.00     0  00:29              1.00
  XR-3                 PUMP         0.00     0  00:00              0.00
  XR-4                 PUMP         0.00     0  00:00              0.00
  
  
  ***************************
  Flow Classification Summary
  ***************************
  
  -------------------------------------------------------------------------------------
                      Adjusted    ---------- Fraction of Time in Flow Class ---------- 
                       /Actual         Up    Down  Sub   Sup   Up    Down  Norm  Inlet 
  Conduit               Length    Dry  Dry   Dry   Crit  Crit  Crit  Crit  Ltd   Ctrl  
  -------------------------------------------------------------------------------------
  1                       1.00   0.00  0.00  0.00  0.00  1.00  0.00  0.00  0.45  0.00
  HS02004478WS02006287    1.00   0.16  0.00  0.00  0.66  0.18  0.00  0.00  0.58  0.00
  HS02004479HS02004480    1.00   0.04  0.00  0.00  0.96  0.00  0.00  0.00  0.11  0.00
  HS02004480HS02004478    1.00   0.13  0.00  0.00  0.61  0.00  0.00  0.26  0.00  0.00
  HS02004770HS02004777    1.00   0.00  0.13  0.00  0.87  0.00  0.00  0.00  0.03  0.00
  HS02004777HS02004785    1.00   0.00  0.00  0.00  1.00  0.00  0.00  0.00  0.12  0.00
  HS02004785HS02004788    1.00   0.00  0.00  0.00  1.00  0.00  0.00  0.00  0.00  0.00
  HS02004788HS02004792    1.00   0.00  0.00  0.00  0.99  0.01  0.00  0.00  0.90  0.00
  HS02004792HS02004799    1.00   0.00  0.00  0.00  0.99  0.01  0.00  0.00  0.86  0.00
  HS02004799HS02004480    1.00   0.00  0.03  0.00  0.84  0.00  0.12  0.00  0.00  0.00
  HS02004802HS02004478    1.00   0.13  0.01  0.00  0.86  0.00  0.00  0.00  0.02  0.00
  HS02004807HS02004802    1.00   0.13  0.00  0.00  0.85  0.00  0.00  0.02  0.00  0.00
  HS02004817HS02004807    1.00   0.00  0.13  0.00  0.87  0.00  0.00  0.00  0.01  0.00
  HS02004817HS02004824    1.00   0.00  0.00  0.00  1.00  0.00  0.00  0.00  0.82  0.00
  HS02004824HS02004830    1.00   0.00  0.00  0.00  1.00  0.00  0.00  0.00  0.01  0.00
  HS02004830HS02004837    1.00   0.00  0.00  0.00  1.00  0.00  0.00  0.00  0.88  0.00
  HS02004837HS02004842    1.00   0.00  0.00  0.00  0.99  0.01  0.00  0.00  0.11  0.00
  HS02004842HS02004848    1.00   0.00  0.13  0.00  0.87  0.00  0.00  0.00  0.55  0.00
  HS02004848HS02004852    1.00   0.13  0.00  0.00  0.87  0.00  0.00  0.00  0.70  0.00
  HS02004852HS02004856    1.00   0.13  0.01  0.00  0.86  0.00  0.00  0.00  0.67  0.00
  HS02004856HS02004862    1.00   0.00  0.17  0.00  0.83  0.00  0.00  0.00  0.74  0.00
  HS02004862HS02004870    1.00   0.00  0.00  0.00  1.00  0.00  0.00  0.00  0.03  0.00
  HS02004870HS02004876    1.00   0.00  0.00  0.00  1.00  0.00  0.00  0.00  0.86  0.00
  HS02004876HS02004881    1.00   0.01  0.00  0.00  0.84  0.15  0.00  0.00  0.00  0.00
  HS02004881HS02006253    1.00   0.03  0.02  0.00  0.35  0.01  0.00  0.59  0.29  0.00
  HS02004901HS02004770    1.00   0.13  0.00  0.00  0.87  0.00  0.00  0.00  0.00  0.00
  WS02001211WS02001212    1.00   0.00  0.02  0.00  0.98  0.00  0.00  0.00  0.00  0.00
  WS02001212WS02001213    1.00   0.02  0.00  0.00  0.37  0.00  0.61  0.00  0.00  0.00
  WS02001213WS02003059    1.00   0.00  0.01  0.00  0.99  0.00  0.00  0.00  0.00  0.00
  WS02003059WS02003060    1.00   0.00  0.00  0.00  1.00  0.00  0.00  0.00  0.03  0.00
  WS02003060WS02003069    1.00   0.00  0.00  0.00  0.97  0.03  0.00  0.00  0.43  0.00
  WS02003066WSF200        1.00   0.06  0.00  0.00  0.00  0.94  0.00  0.00  0.68  0.00
  WS02003067WS02003066    1.00   0.05  0.01  0.00  0.94  0.00  0.00  0.00  0.00  0.00
  WS02003069WS02003072    1.00   0.00  0.00  0.00  0.99  0.01  0.00  0.00  0.60  0.00
  WS02003072WS02003073    1.00   0.00  0.00  0.00  0.00  0.00  0.00  1.00  0.00  0.00
  WS02004138WS02004139    1.00   0.02  0.00  0.00  0.97  0.01  0.00  0.00  0.98  0.00
  WS02004139WS02001211    1.00   0.00  0.01  0.00  0.99  0.00  0.00  0.00  0.00  0.00
  WS02004401WS02004402    1.00   0.00  0.00  0.00  1.00  0.00  0.00  0.00  0.00  0.00
  WS02004402WS02004403    1.00   0.00  0.00  0.00  1.00  0.00  0.00  0.00  0.00  0.00
  WS02004403WS02004404    1.00   0.00  0.00  0.00  1.00  0.00  0.00  0.00  0.00  0.00
  WS02004404WS02004405    1.00   0.00  0.00  0.00  1.00  0.00  0.00  0.00  0.01  0.00
  WS02004405WS02004406    1.00   0.00  0.00  0.00  1.00  0.00  0.00  0.00  0.00  0.00
  WS02004406WS02004407    1.00   0.00  0.01  0.00  0.99  0.00  0.00  0.00  0.01  0.00
  WS02004407WS02004409    1.00   0.01  0.00  0.00  0.98  0.01  0.00  0.00  0.85  0.00
  WS02004409WS02004410    1.00   0.01  0.00  0.00  0.99  0.00  0.00  0.00  0.00  0.00
  WS02004410WS02004411    1.00   0.01  0.00  0.00  0.99  0.00  0.00  0.00  0.01  0.00
  WS02004411WS02004412    1.00   0.01  0.00  0.00  0.99  0.00  0.00  0.00  0.00  0.00
  WS02004412WS02004413    1.00   0.01  0.00  0.00  0.99  0.00  0.00  0.00  0.02  0.00
  WS02004413WS02003067    1.00   0.01  0.04  0.00  0.00  0.00  0.95  0.00  0.00  0.00
  WS02006109WS02006110    1.00   0.00  0.00  0.00  1.00  0.00  0.00  0.00  0.00  0.00
  WS02006110WS02006113    1.00   0.00  0.00  0.00  1.00  0.00  0.00  0.00  0.00  0.00
  WS02006111WS02006112    1.00   0.00  0.00  0.00  1.00  0.00  0.00  0.00  0.78  0.00
  WS02006112WS02006115    1.00   0.00  0.00  0.00  1.00  0.00  0.00  0.00  0.00  0.00
  WS02006113WS02006111    1.00   0.00  0.00  0.00  0.20  0.80  0.00  0.00  0.06  0.00
  WS02006115WS02006116    1.00   0.00  0.00  0.00  1.00  0.00  0.00  0.00  0.00  0.00
  WS02006116WS02004401    1.00   0.00  0.00  0.00  1.00  0.00  0.00  0.00  0.00  0.00
  WS02006228WS02006109    1.00   0.00  0.00  0.00  1.00  0.00  0.00  0.00  0.00  0.00
  WS02006229WS02006228    1.00   0.00  0.00  0.00  1.00  0.00  0.00  0.00  0.00  0.00
  WS02006230WS02006229    1.00   0.00  0.00  0.00  1.00  0.00  0.00  0.00  0.00  0.00
  WS02006231WS02006230    1.00   0.00  0.00  0.00  0.31  0.00  0.69  0.00  0.00  0.00
  WS02006232WS02006231    1.00   0.00  0.00  0.00  0.99  0.00  0.00  0.00  0.01  0.00
  WS02006234WS02006232    1.00   0.00  0.01  0.00  0.99  0.00  0.00  0.00  0.03  0.00
  WS02006235WS02006234    1.00   0.02  0.00  0.00  0.91  0.00  0.07  0.00  0.00  0.00
  WS02006238WS02006235    1.00   0.02  0.00  0.00  0.98  0.00  0.00  0.00  0.00  0.00
  WS02006239WS02006238    1.00   0.02  0.00  0.00  0.98  0.00  0.00  0.00  0.07  0.00
  WS02006240WS02006239    1.00   0.02  0.00  0.00  0.58  0.00  0.00  0.41  0.03  0.00
  WS02006242WS02006240    1.00   0.01  0.00  0.00  0.98  0.00  0.01  0.00  0.00  0.00
  WS02006243WS02006242    1.00   0.01  0.00  0.00  0.98  0.00  0.00  0.01  0.55  0.00
  WS02006245WS02006243    1.00   0.01  0.00  0.00  0.90  0.00  0.00  0.09  0.00  0.00
  WS02006247WS02006245    1.00   0.01  0.00  0.00  0.98  0.00  0.00  0.01  0.00  0.00
  WS02006248WS02006247    1.00   0.01  0.00  0.00  0.98  0.00  0.00  0.01  0.54  0.00
  WS02006249WS02006248    1.00   0.00  0.01  0.00  0.46  0.00  0.53  0.00  0.00  0.00
  WS02006251WS02006249    1.00   0.00  0.00  0.00  1.00  0.00  0.00  0.00  0.52  0.00
  WS02006252WS02006251    1.00   0.01  0.11  0.00  0.20  0.00  0.68  0.00  0.00  0.00
  WS02006253WS02006251    1.00   0.01  0.00  0.00  0.99  0.00  0.00  0.00  0.00  0.00
  WS02006256WS02006235    1.00   0.02  0.00  0.00  0.98  0.00  0.00  0.00  0.00  0.00
  WS02006280WS02006229    1.00   0.14  0.00  0.00  0.16  0.04  0.00  0.67  0.01  0.00
  WS02006284WS02006280    1.00   0.14  0.00  0.00  0.10  0.01  0.00  0.74  0.00  0.00
  WS02006287WS02006284    1.00   0.10  0.06  0.00  0.56  0.28  0.00  0.00  0.64  0.00
  WSF200WS02003060        1.00   0.00  0.06  0.00  0.67  0.27  0.00  0.00  0.57  0.00
  YS02001580YS02001583    1.00   0.27  0.54  0.00  0.19  0.00  0.00  0.00  0.64  0.00
  YS02001583YS02001586    1.00   0.41  0.35  0.00  0.24  0.00  0.00  0.00  0.64  0.00
  YS02001586YS02001590    1.00   0.13  0.00  0.00  0.45  0.04  0.00  0.39  0.39  0.00
  YS02001590YS02001593    1.00   0.13  0.01  0.00  0.11  0.00  0.76  0.00  0.00  0.00
  YS02001593YS02001596    1.00   0.13  0.00  0.00  0.13  0.01  0.00  0.73  0.02  0.00
  YS02001596YS02001600    1.00   0.14  0.00  0.00  0.20  0.02  0.00  0.65  0.05  0.00
  YS02001600YS02001601    1.00   0.13  0.01  0.00  0.86  0.00  0.00  0.00  0.59  0.00
  YS02001601YS02001602    1.00   0.13  0.01  0.00  0.87  0.00  0.00  0.00  0.00  0.00
  YS02001602YS02001605    1.00   0.13  0.00  0.00  0.86  0.00  0.00  0.00  0.00  0.00
  YS02001605YS02001607    1.00   0.14  0.00  0.00  0.86  0.00  0.00  0.00  0.00  0.00
  YS02001607YS02001610    1.00   0.13  0.01  0.00  0.86  0.00  0.00  0.00  0.01  0.00
  YS02001610YS02001613    1.00   0.13  0.00  0.00  0.87  0.00  0.00  0.00  0.00  0.00
  YS02001613YS02001616    1.00   0.13  0.00  0.00  0.87  0.00  0.00  0.00  0.00  0.00
  YS02001616YS02001619    1.00   0.13  0.00  0.00  0.87  0.00  0.00  0.00  0.00  0.00
  YS02001619YS02001622    1.00   0.13  0.00  0.00  0.87  0.00  0.00  0.00  0.28  0.00
  YS02001622YS02001625    1.00   0.13  0.00  0.00  0.87  0.00  0.00  0.00  0.04  0.00
  YS02001625YS02001629    1.00   0.13  0.05  0.00  0.16  0.00  0.67  0.00  0.00  0.00
  YS02001629YS02163301    1.00   0.15  0.01  0.00  0.84  0.00  0.00  0.00  0.00  0.00
  YS02001633YS02163601    1.00   0.00  0.01  0.00  0.99  0.00  0.00  0.00  0.15  0.00
  YS02001641YS02001644    1.00   0.00  0.01  0.00  0.99  0.00  0.00  0.00  0.00  0.00
  YS02001644YS02001647    1.00   0.00  0.17  0.00  0.83  0.00  0.00  0.00  0.00  0.00
  YS02001647YS02001649    1.00   0.00  0.17  0.00  0.59  0.24  0.00  0.00  0.56  0.00
  YS02001649YS02001757    1.00   0.00  0.00  0.00  0.90  0.10  0.00  0.00  0.73  0.00
  YS02001652YS02001649    1.00   0.00  0.00  0.00  0.96  0.04  0.00  0.00  0.72  0.00
  YS02001655YS02001652    1.00   0.00  0.00  0.00  0.21  0.01  0.00  0.78  0.10  0.00
  YS02001658YS02001655    1.00   0.00  0.14  0.00  0.63  0.23  0.00  0.00  0.72  0.00
  YS02001661YS02001658    1.00   0.14  0.00  0.00  0.45  0.41  0.00  0.00  0.72  0.00
  YS02001664YS02001661    1.00   0.13  0.00  0.00  0.73  0.14  0.00  0.00  0.86  0.00
  YS02001745YS02001748    1.00   0.00  0.00  0.00  0.05  0.01  0.00  0.94  0.03  0.00
  YS02001748YS02001751    1.00   0.00  0.00  0.00  0.78  0.22  0.00  0.00  0.78  0.00
  YS02001751YS02001754    1.00   0.00  0.00  0.00  0.18  0.01  0.00  0.81  0.08  0.00
  YS02001754YS02001757    1.00   0.00  0.00  0.00  1.00  0.00  0.00  0.00  0.79  0.00
  YS02001757CaochengTiaoxuchi    1.00   0.00  0.00  0.00  0.29  0.71  0.00  0.00  0.15  0.00
  YS02001759YS02001757    1.00   0.00  0.00  0.00  1.00  0.00  0.00  0.00  0.69  0.00
  YS02001762YS02001759    1.00   0.00  0.00  0.00  1.00  0.00  0.00  0.00  0.04  0.00
  YS02001765YS02001762    1.00   0.00  0.00  0.00  1.00  0.00  0.00  0.00  0.69  0.00
  YS02001767YS02001765    1.00   0.00  0.00  0.00  1.00  0.00  0.00  0.00  0.00  0.00
  YS02001770YS02001767    1.00   0.00  0.00  0.00  1.00  0.00  0.00  0.00  0.00  0.00
  YS02001774YS02001770    1.00   0.00  0.13  0.00  0.70  0.00  0.16  0.00  0.03  0.00
  YS02001779YS02001774    1.00   0.00  0.00  0.00  1.00  0.00  0.00  0.00  0.74  0.00
  YS02001783YS02001784    1.00   0.00  0.18  0.00  0.82  0.00  0.00  0.00  0.55  0.00
  YS02001784YS02001785    1.00   0.00  0.00  0.00  1.00  0.00  0.00  0.00  0.17  0.00
  YS02001786YS02001788    1.00   0.00  0.00  0.00  0.78  0.22  0.00  0.00  0.00  0.00
  YS02001788YS02001790    1.00   0.00  0.00  0.00  0.21  0.79  0.00  0.00  0.80  0.00
  YS02001790YS02001791    1.00   0.00  0.00  0.00  0.01  0.99  0.00  0.00  0.16  0.00
  YS02001791YS02001793    1.00   0.00  0.00  0.00  0.00  1.00  0.00  0.00  0.01  0.00
  YS02001793JiankangQianchi    1.00   0.00  0.00  0.00  0.04  0.96  0.00  0.00  0.09  0.00
  YS02001882YS02001884    1.00   0.15  0.01  0.00  0.84  0.00  0.00  0.00  0.00  0.00
  YS02001884YS02001887    1.00   0.06  0.05  0.00  0.89  0.00  0.00  0.00  0.00  0.00
  YS02001887YS02001890    1.00   0.00  0.00  0.00  0.97  0.00  0.03  0.00  0.00  0.00
  YS02001890YS02001895    1.00   0.00  0.16  0.00  0.84  0.00  0.00  0.00  0.00  0.00
  YS02001895YS02001898    1.00   0.16  0.00  0.00  0.82  0.00  0.02  0.00  0.00  0.00
  YS02001898YS02001901    1.00   0.17  0.00  0.00  0.83  0.00  0.00  0.00  0.01  0.00
  YS02001901YS02001904    1.00   0.17  0.00  0.00  0.83  0.00  0.00  0.00  0.00  0.00
  YS02001904YS02001907    1.00   0.00  0.16  0.00  0.83  0.00  0.00  0.00  0.00  0.00
  YS02001907YS02006553    1.00   0.00  0.02  0.00  0.98  0.00  0.00  0.00  0.00  0.00
  YS02001910YS02001907    1.00   0.00  0.00  0.00  0.97  0.00  0.00  0.03  0.12  0.00
  YS02001915YS02001910    1.00   0.00  0.00  0.00  0.96  0.04  0.00  0.00  0.16  0.00
  YS02001918YS02001915    1.00   0.00  0.00  0.00  0.98  0.02  0.00  0.00  0.75  0.00
  YS02001920YS02001918    1.00   0.00  0.00  0.00  1.00  0.00  0.00  0.00  0.01  0.00
  YS02001923YS02001920    1.00   0.00  0.00  0.00  1.00  0.00  0.00  0.00  0.92  0.00
  YS02001926YS02001923    1.00   0.00  0.07  0.00  0.06  0.00  0.87  0.00  0.00  0.00
  YS02001929YS02001926    1.00   0.00  0.13  0.00  0.87  0.00  0.00  0.00  0.82  0.00
  YS02006553YS02006556    1.00   0.01  0.00  0.00  0.99  0.00  0.00  0.00  0.03  0.00
  YS02006556YS02006558    1.00   0.00  0.00  0.00  1.00  0.00  0.00  0.00  0.00  0.00
  YS02006558YS02006561    1.00   0.18  0.00  0.00  0.05  0.77  0.00  0.00  0.19  0.00
  YS02006561YS02001783    1.00   0.18  0.00  0.00  0.09  0.73  0.00  0.00  0.68  0.00
  YS02163301YS02001633    1.00   0.00  0.15  0.00  0.85  0.00  0.00  0.00  0.00  0.00
  YS02163601YS02164001    1.00   0.00  0.08  0.00  0.92  0.00  0.00  0.00  0.00  0.00
  YS02164001YS02001641    1.00   0.01  0.07  0.00  0.92  0.00  0.00  0.00  0.05  0.00
  YSB1154YSB6556          1.00   0.12  0.00  0.00  0.88  0.00  0.00  0.00  0.02  0.00
  YSB1171HS02004479       1.00   0.04  0.00  0.00  0.95  0.00  0.00  0.01  0.10  0.00
  YSB1174YSB1171          1.00   0.05  0.04  0.00  0.91  0.00  0.00  0.00  0.00  0.00
  YSB6556YSB1171          1.00   0.04  0.08  0.00  0.88  0.00  0.00  0.00  0.00  0.00
  
  
  *************************
  Conduit Surcharge Summary
  *************************
  
  ----------------------------------------------------------------------------
                                                           Hours        Hours 
                         --------- Hours Full --------   Above Full   Capacity
  Conduit                Both Ends  Upstream  Dnstream   Normal Flow   Limited
  ----------------------------------------------------------------------------
  HS02004478WS02006287        0.46      0.46      0.64      0.01         0.01
  HS02004479HS02004480        0.64      0.64      0.67      0.01         0.01
  HS02004480HS02004478        0.57      0.63      0.57      1.71         0.57
  HS02004770HS02004777        0.53      0.53      0.54      0.12         0.06
  HS02004777HS02004785        0.49      0.49      0.54      0.01         0.01
  HS02004785HS02004788        0.48      0.49      0.48      1.40         0.45
  HS02004788HS02004792        0.48      0.48      0.60      0.01         0.01
  HS02004792HS02004799        0.60      0.60      0.74      0.01         0.01
  HS02004799HS02004480        0.63      0.63      0.74      0.84         0.01
  HS02004802HS02004478        0.58      0.58      0.66      0.09         0.01
  HS02004807HS02004802        0.63      0.63      0.65      0.24         0.25
  HS02004817HS02004807        0.63      0.63      1.22      0.01         0.01
  HS02004817HS02004824        0.48      0.48      1.22      0.01         0.01
  HS02004824HS02004830        0.45      0.45      0.48      0.01         0.01
  HS02004830HS02004837        0.41      0.41      0.45      0.01         0.01
  HS02004837HS02004842        0.41      0.41      0.55      0.01         0.01
  HS02004842HS02004848        0.37      0.37      0.55      0.01         0.01
  HS02004848HS02004852        0.37      0.37      0.39      0.03         0.01
  HS02004852HS02004856        0.39      0.39      0.41      0.02         0.01
  HS02004856HS02004862        0.37      0.37      0.41      0.01         0.01
  HS02004862HS02004870        0.41      0.41      0.43      0.17         0.16
  HS02004870HS02004876        0.43      0.43      0.48      0.01         0.01
  HS02004876HS02004881        0.46      0.48      0.46      1.45         0.46
  HS02004881HS02006253        0.46      0.46      1.52      0.01         0.01
  HS02004901HS02004770        0.53      0.53      0.54      0.01         0.01
  WS02003072WS02003073        0.01      0.01      0.01      2.91         0.01
  WS02004401WS02004402        1.68      1.68      1.70      1.43         1.41
  WS02004402WS02004403        1.70      1.70      1.71      1.68         1.65
  WS02004403WS02004404        1.71      1.71      1.79      0.01         0.02
  WS02004404WS02004405        1.77      1.79      1.77      3.43         1.77
  WS02004405WS02004406        1.75      1.77      1.75      1.90         1.75
  WS02004406WS02004407        0.01      0.01      1.75      0.01         0.01
  WS02004407WS02004409        0.01      0.01      1.08      0.01         0.01
  WS02004409WS02004410        1.02      1.08      1.02      1.52         1.02
  WS02004410WS02004411        0.87      1.02      0.87      1.58         0.87
  WS02004411WS02004412        0.77      0.87      0.77      1.65         0.77
  WS02004412WS02004413        0.77      0.77      1.31      0.01         0.01
  WS02004413WS02003067        0.01      0.01      1.31      0.01         0.01
  WS02006109WS02006110        1.86      1.87      2.15      1.88         0.01
  WS02006110WS02006113        1.28      1.28      2.14      0.29         0.01
  WS02006111WS02006112        1.26      1.26      2.63      0.01         0.01
  WS02006112WS02006115        1.53      1.53      1.93      0.01         0.01
  WS02006113WS02006111        1.27      1.28      1.27      1.41         1.27
  WS02006115WS02006116        1.54      1.54      1.54      1.53         1.50
  WS02006116WS02004401        1.67      1.67      1.68      1.65         1.62
  WS02006228WS02006109        2.11      2.15      2.11      2.99         2.11
  WS02006229WS02006228        2.10      2.12      2.10      2.38         2.10
  WS02006230WS02006229        2.20      2.25      2.20      4.08         1.14
  WS02006231WS02006230        1.79      1.79      1.84      3.31         1.02
  WS02006232WS02006231        1.83      1.83      1.94      0.01         0.14
  WS02006234WS02006232        1.86      1.86      1.94      0.01         0.01
  WS02006235WS02006234        1.85      1.86      1.87      3.06         0.99
  WS02006238WS02006235        1.88      1.88      1.91      0.01         0.36
  WS02006239WS02006238        1.89      1.89      1.89      0.82         0.04
  WS02006240WS02006239        1.86      1.86      1.86      0.81         0.02
  WS02006242WS02006240        1.86      1.86      1.90      1.36         0.89
  WS02006243WS02006242        1.79      1.79      1.88      0.01         0.01
  WS02006245WS02006243        1.74      1.74      1.77      0.03         0.02
  WS02006247WS02006245        1.73      1.74      1.73      2.89         0.49
  WS02006248WS02006247        1.68      1.68      1.73      0.01         0.01
  WS02006249WS02006248        1.67      1.67      1.68      1.60         0.01
  WS02006251WS02006249        1.66      1.67      1.68      1.30         1.24
  WS02006252WS02006251        1.58      1.59      1.64      0.17         0.01
  WS02006253WS02006251        1.66      1.67      1.70      0.78         0.02
  WS02006256WS02006235        3.28      3.29      7.39      0.73         0.01
  WS02006280WS02006229        0.78      0.78      0.94      0.01         0.01
  WS02006284WS02006280        0.67      0.67      0.76      0.01         0.01
  WS02006287WS02006284        0.56      0.56      0.68      0.29         0.29
  YS02001580YS02001583        0.58      0.58      0.61      0.01         0.01
  YS02001583YS02001586        0.58      0.58      0.68      0.01         0.01
  YS02001586YS02001590        0.69      0.69      0.76      0.01         0.01
  YS02001590YS02001593        0.76      0.76      0.79      0.80         0.01
  YS02001593YS02001596        0.78      0.78      0.89      0.01         0.01
  YS02001596YS02001600        0.95      0.95      1.05      0.01         0.01
  YS02001600YS02001601        1.11      1.11      1.42      0.01         0.01
  YS02001601YS02001602        1.29      1.29      1.46      1.08         0.01
  YS02001602YS02001605        1.23      1.23      1.29      2.36         0.01
  YS02001605YS02001607        1.19      1.23      1.19      1.37         1.18
  YS02001607YS02001610        0.70      0.70      0.74      0.01         0.01
  YS02001610YS02001613        0.70      0.70      0.74      0.01         0.01
  YS02001613YS02001616        0.65      0.65      0.70      0.01         0.01
  YS02001616YS02001619        0.64      0.64      0.65      0.01         0.01
  YS02001619YS02001622        0.63      0.64      0.63      0.81         0.62
  YS02001622YS02001625        0.63      0.63      0.83      0.01         0.01
  YS02001625YS02001629        0.55      0.55      0.83      0.01         0.01
  YS02001629YS02163301        0.81      0.81      0.82      0.36         0.35
  YS02001633YS02163601        0.84      0.84      0.88      0.50         0.51
  YS02001641YS02001644        0.67      0.73      0.67      1.51         0.66
  YS02001644YS02001647        0.42      0.42      0.67      0.04         0.01
  YS02001647YS02001649        0.42      0.42      0.47      0.01         0.01
  YS02001649YS02001757        0.46      0.47      0.48      0.42         0.35
  YS02001652YS02001649        0.34      0.34      0.47      0.01         0.01
  YS02001655YS02001652        0.22      0.22      0.32      0.01         0.01
  YS02001658YS02001655        0.14      0.14      0.22      0.01         0.01
  YS02001661YS02001658        0.01      0.01      0.14      0.01         0.01
  YS02001664YS02001661        0.01      0.01      0.03      0.01         0.01
  YS02001745YS02001748        0.01      0.01      0.06      0.01         0.01
  YS02001748YS02001751        0.11      0.11      0.16      0.01         0.01
  YS02001751YS02001754        0.16      0.16      0.22      0.01         0.01
  YS02001754YS02001757        0.24      0.24      0.48      0.01         0.01
  YS02001757CaochengTiaoxuchi        0.21      0.48      1.06      0.45         0.11
  YS02001759YS02001757        0.41      0.41      0.48      0.02         0.04
  YS02001762YS02001759        0.38      0.38      0.41      0.01         0.03
  YS02001765YS02001762        0.35      0.35      0.38      0.01         0.01
  YS02001767YS02001765        0.33      0.33      0.35      0.01         0.05
  YS02001770YS02001767        0.33      0.34      0.33      0.55         0.32
  YS02001774YS02001770        0.32      0.32      0.37      0.01         0.01
  YS02001779YS02001774        0.24      0.24      0.37      0.01         0.01
  YS02001783YS02001784        0.49      0.52      0.49      0.69         0.49
  YS02001784YS02001785        0.38      0.49      0.38      0.95         0.38
  YS02001786YS02001788        0.01      0.38      0.01      0.81         0.01
  YS02001790YS02001791        0.01      0.01      0.01      0.48         0.01
  YS02001793JiankangQianchi        0.01      0.01      0.21      0.01         0.01
  YS02001882YS02001884        0.46      0.46      0.47      0.01         0.01
  YS02001884YS02001887        0.49      0.49      0.51      0.01         0.01
  YS02001887YS02001890        0.52      0.52      0.53      0.09         0.01
  YS02001890YS02001895        0.45      0.45      0.55      0.01         0.01
  YS02001895YS02001898        0.44      0.44      0.45      0.01         0.01
  YS02001898YS02001901        0.45      0.45      0.49      0.01         0.01
  YS02001901YS02001904        0.48      0.48      0.49      0.01         0.01
  YS02001904YS02001907        0.48      0.48      0.80      0.01         0.01
  YS02001907YS02006553        0.96      0.96      1.04      0.01         0.01
  YS02001910YS02001907        0.55      0.55      0.78      0.01         0.01
  YS02001915YS02001910        0.46      0.46      0.55      0.01         0.01
  YS02001918YS02001915        0.37      0.37      0.46      0.01         0.01
  YS02001920YS02001918        0.37      0.37      0.38      0.01         0.01
  YS02001923YS02001920        0.33      0.33      0.38      0.01         0.01
  YS02001926YS02001923        0.06      0.06      0.11      0.01         0.01
  YS02001929YS02001926        0.01      0.01      0.11      0.01         0.01
  YS02006553YS02006556        0.65      0.65      0.80      0.01         0.01
  YS02006556YS02006558        0.72      0.72      0.81      0.01         0.01
  YS02006558YS02006561        0.40      0.64      0.40      0.90         0.40
  YS02006561YS02001783        0.34      0.34      0.52      0.01         0.01
  YS02163301YS02001633        0.82      0.82      0.87      0.01         0.01
  YS02163601YS02164001        0.74      0.74      0.88      0.29         0.01
  YS02164001YS02001641        0.73      0.74      0.73      0.77         0.58
  YSB1154YSB6556              0.71      0.71      0.87      0.01         0.01
  YSB1171HS02004479           0.59      0.59      0.87      0.01         0.01
  YSB1174YSB1171              0.78      0.78      1.13      0.01         0.01
  YSB6556YSB1171              0.71      0.71      1.28      0.01         0.01
  
  
  ***************
  Pumping Summary
  ***************
  
  ---------------------------------------------------------------------------------------------------------
                                                  Min       Avg       Max     Total     Power    % Time Off
                        Percent   Number of      Flow      Flow      Flow    Volume     Usage    Pump Curve
  Pump                 Utilized   Start-Ups       LPS       LPS       LPS  10^6 ltr     Kw-hr    Low   High
  ---------------------------------------------------------------------------------------------------------
  CC-R1                   45.83           7      0.00    623.58    683.00     7.014    118.27    0.0   71.1
  CC-R2                   77.08          10      0.00    341.02    683.00     4.575     74.87    0.0   93.9
  CC-S1                   26.04           5      0.00    200.00    200.00     1.500     11.18    0.0   32.5
  CC-S2                   61.46          11      0.00     94.24    200.00     0.954      7.13    0.0   86.4
  JK-R1                   80.21          10      0.00    131.07   1000.00     2.493      7.44    0.0    0.0
  JK-R2                   43.75           9      0.00    222.16   1000.00     2.533      6.53    0.0    0.0
  JK-S                    35.42          10      0.00    124.01    300.00     1.233     27.58    0.0    0.0
  XR-1                    97.91           1      0.00     95.00     95.00     2.679      9.64    0.0    0.0
  XR-2                    93.95           1      0.00     95.00     95.00     2.570      8.80    0.0    0.0
  XR-3                     0.00           0      0.00      0.00      0.00     0.000      0.00    0.0    0.0
  XR-4                     0.00           0      0.00      0.00      0.00     0.000      0.00    0.0    0.0
  

  Analysis begun on:  Thu Jun 15 06:46:33 2023
  Analysis ended on:  Thu Jun 15 06:46:37 2023
  Total elapsed time: 00:00:04