
  OWA STORM WATER MANAGEMENT MODEL - VERSION v5.1.14 (OWA 2022-07-31)
  --------------------------------------------------------------

  WARNING 04: minimum elevation drop used for Conduit WS02004404WS02004405
  WARNING 03: negative offset ignored for Link YS02001904YS02001907
  
  *********************************************************
  NOTE: The summary statistics displayed in this report are
  based on results found at every computational time step,  
  not just on results from each reporting time step.
  *********************************************************
  
  ****************
  Analysis Options
  ****************
  Flow Units ............... LPS
  Process Models:
    Rainfall/Runoff ........ YES
    RDII ................... NO
    Snowmelt ............... NO
    Groundwater ............ NO
    Flow Routing ........... YES
    Ponding Allowed ........ NO
    Water Quality .......... NO
  Infiltration Method ...... HORTON
  Flow Routing Method ...... DYNWAVE
  Surcharge Method ......... EXTRAN
  Starting Date ............ 08/28/2015 08:00:00
  Ending Date .............. 08/28/2015 16:00:00
  Antecedent Dry Days ...... 8.0
  Report Time Step ......... 00:01:00
  Wet Time Step ............ 00:01:00
  Dry Time Step ............ 00:01:00
  Routing Time Step ........ 30.00 sec
  Variable Time Step ....... YES
  Maximum Trials ........... 8
  Number of Threads ........ 4
  Head Tolerance ........... 0.001500 m
  
  
  **************************        Volume         Depth
  Runoff Quantity Continuity     hectare-m            mm
  **************************     ---------       -------
  Total Precipitation ......         8.350       251.731
  Evaporation Loss .........         0.000         0.000
  Infiltration Loss ........         0.112         3.381
  Surface Runoff ...........         8.207       247.427
  Final Storage ............         0.033         1.000
  Continuity Error (%) .....        -0.030
  
  
  **************************        Volume        Volume
  Flow Routing Continuity        hectare-m      10^6 ltr
  **************************     ---------     ---------
  Dry Weather Inflow .......         0.025         0.251
  Wet Weather Inflow .......         8.208        82.084
  Groundwater Inflow .......         0.000         0.000
  RDII Inflow ..............         0.000         0.000
  External Inflow ..........         0.083         0.834
  External Outflow .........         2.237        22.371
  Flooding Loss ............         6.127        61.275
  Evaporation Loss .........         0.000         0.000
  Exfiltration Loss ........         0.000         0.000
  Initial Stored Volume ....         0.243         2.431
  Final Stored Volume ......         0.222         2.218
  Continuity Error (%) .....        -0.310
  
  
  *************************
  Highest Continuity Errors
  *************************
  Node YS02001884 (5.27%)
  Node YS02001583 (-3.60%)
  
  
  ***************************
  Time-Step Critical Elements
  ***************************
  Link WS02006252WS02006251 (35.93%)
  Link WS02004404WS02004405 (29.66%)
  Link WS02006235WS02006234 (9.64%)
  Link YS02001791YS02001793 (8.41%)
  Link WS02003066WSF200 (4.01%)
  
  
  ********************************
  Highest Flow Instability Indexes
  ********************************
  Link WS02006113WS02006111 (47)
  Link WS02006111WS02006112 (33)
  Link WS02006238WS02006235 (28)
  Link YS02001602YS02001605 (24)
  Link YS02001605YS02001607 (24)
  
  
  *************************
  Routing Time Step Summary
  *************************
  Minimum Time Step           :     0.01 sec
  Average Time Step           :     2.36 sec
  Maximum Time Step           :    30.00 sec
  Percent in Steady State     :     0.00
  Average Iterations per Step :     3.41
  Percent Not Converging      :    15.59
  
  
  ***************************
  Subcatchment Runoff Summary
  ***************************
  
  ------------------------------------------------------------------------------------------------------------------------------
                            Total      Total      Total      Total     Imperv       Perv      Total       Total     Peak  Runoff
                           Precip      Runon       Evap      Infil     Runoff     Runoff     Runoff      Runoff   Runoff   Coeff
  Subcatchment                 mm         mm         mm         mm         mm         mm         mm    10^6 ltr      LPS
  ------------------------------------------------------------------------------------------------------------------------------
  sub60                    316.61       0.00       0.00       1.97     277.51      36.04     313.55        4.12  3066.39   0.990
  sub61                    316.61       0.00       0.00       2.87     261.75      50.97     312.72        5.74  4276.60   0.988
  sub62                    316.61       0.00       0.00       1.31     290.08      24.03     314.11        8.61  6156.70   0.992
  sub63                    316.61       0.00       0.00       5.39     223.90      86.45     310.35        7.04  5064.97   0.980
  sub64                    316.61       0.00       0.00       2.71     267.99      44.79     312.78        7.51  5221.36   0.988
  sub65                    316.61       0.00       0.00       2.35     274.27      38.82     313.09        8.62  5927.19   0.989
  sub66                    316.61       0.00       0.00       6.86     223.76      84.97     308.73       14.40  8981.20   0.975
  sub67                     66.42       0.00       0.00       1.18      59.87       4.14      64.01        1.19   745.84   0.964
  sub68                     66.42       0.00       0.00       2.20      55.94       7.11      63.05        1.74   941.31   0.949
  sub69                    316.61       0.00       0.00       2.22     269.08      45.28     314.36       11.64  7924.18   0.993
  sub70                    316.61       0.00       0.00       7.68     208.83      99.98     308.81        8.92  5219.07   0.975
  sub71                     66.42       0.00       0.00       1.25      59.79       4.07      63.85        1.67   792.66   0.961
  sub72                     66.42       0.00       0.00       1.11      60.37       3.54      63.91        0.88   375.50   0.962
  
  
  ******************
  Node Depth Summary
  ******************
  
  ---------------------------------------------------------------------------------
                                 Average  Maximum  Maximum  Time of Max    Reported
                                   Depth    Depth      HGL   Occurrence   Max Depth
  Node                 Type       Meters   Meters   Meters  days hr:min      Meters
  ---------------------------------------------------------------------------------
  WS02003060           JUNCTION     0.24     0.38     5.32     0  02:22        0.38
  WS02003066           JUNCTION     0.20     0.30     5.85     0  02:21        0.30
  WS02003067           JUNCTION     0.51     0.70     6.02     0  02:21        0.70
  WS02003069           JUNCTION     0.26     0.43     5.01     0  02:53        0.43
  WS02003072           JUNCTION     0.32     0.50     4.87     0  02:54        0.50
  WS02003073           JUNCTION     0.18     0.30     4.36     0  02:54        0.30
  WS02004401           JUNCTION     0.61     0.85     6.85     0  02:19        0.85
  WS02004402           JUNCTION     0.64     0.88     6.84     0  02:19        0.88
  WS02004403           JUNCTION     0.66     0.89     6.82     0  02:19        0.89
  WS02004404           JUNCTION     0.74     0.96     6.81     0  02:19        0.96
  WS02004405           JUNCTION     0.74     0.96     6.81     0  02:19        0.96
  WS02004406           JUNCTION     0.75     0.96     6.79     0  02:19        0.96
  WS02004407           JUNCTION     0.18     0.30     6.61     0  02:20        0.30
  WS02004409           JUNCTION     0.40     0.67     6.44     0  02:20        0.67
  WS02004410           JUNCTION     0.43     0.68     6.40     0  02:20        0.68
  WS02004411           JUNCTION     0.45     0.69     6.37     0  02:20        0.69
  WS02004412           JUNCTION     0.47     0.70     6.34     0  02:21        0.70
  WS02004413           JUNCTION     0.63     0.86     6.33     0  02:21        0.86
  WS02006109           JUNCTION     0.67     1.12     7.74     0  03:36        0.98
  WS02006110           JUNCTION     0.67     1.12     7.70     0  03:36        0.92
  WS02006111           JUNCTION     0.18     0.90     7.60     0  00:00        0.40
  WS02006112           JUNCTION     0.77     2.68     8.56     0  00:00        1.14
  WS02006113           JUNCTION     0.28     1.40     8.29     0  00:00        0.46
  WS02006115           JUNCTION     0.49     1.65     7.79     0  00:00        0.86
  WS02006116           JUNCTION     0.58     1.06     7.10     0  00:00        0.83
  WS02006228           JUNCTION     0.67     1.12     7.77     0  03:36        1.06
  WS02006229           JUNCTION     0.64     1.41     8.11     0  01:59        1.41
  WS02006230           JUNCTION     0.65     1.22     7.96     0  03:36        1.20
  WS02006231           JUNCTION     0.44     0.99     8.11     0  03:35        0.94
  WS02006232           JUNCTION     0.58     1.17     8.21     0  03:36        1.12
  WS02006234           JUNCTION     0.52     1.33     8.49     0  03:35        1.12
  WS02006235           JUNCTION     0.57     1.50     8.66     0  03:35        1.19
  WS02006238           JUNCTION     0.59     1.53     8.68     0  03:35        1.22
  WS02006239           JUNCTION     0.57     1.56     8.77     0  01:59        1.56
  WS02006240           JUNCTION     0.55     1.72     9.02     0  01:59        1.72
  WS02006242           JUNCTION     0.62     1.51     8.78     0  01:59        1.51
  WS02006243           JUNCTION     0.54     1.48     8.90     0  01:59        1.48
  WS02006245           JUNCTION     0.54     1.30     8.79     0  01:59        1.30
  WS02006247           JUNCTION     0.56     1.21     8.71     0  03:35        1.16
  WS02006248           JUNCTION     0.53     1.10     8.69     0  01:59        1.10
  WS02006249           JUNCTION     0.56     1.09     8.69     0  01:28        1.09
  WS02006251           JUNCTION     0.56     1.51     9.18     0  01:29        1.18
  WS02006252           JUNCTION     0.39     1.50     9.74     0  01:24        1.18
  WS02006256           JUNCTION     1.05     2.35     9.28     0  00:40        2.35
  WSF200               JUNCTION     0.17     0.29     5.52     0  02:22        0.29
  YS02001580           JUNCTION     0.22     1.05     9.59     0  01:22        0.79
  YS02001583           JUNCTION     0.25     1.14     9.64     0  01:22        0.83
  YS02001586           JUNCTION     0.38     1.13     9.30     0  01:22        1.13
  YS02001590           JUNCTION     0.50     1.40     9.26     0  01:22        1.38
  YS02001593           JUNCTION     0.44     1.35     9.21     0  01:59        1.30
  YS02001596           JUNCTION     0.59     1.70     9.12     0  01:59        1.66
  YS02001600           JUNCTION     0.69     1.87     9.00     0  01:22        1.87
  YS02001601           JUNCTION     0.86     2.06     8.90     0  01:21        2.06
  YS02001602           JUNCTION     0.76     1.87     8.77     0  01:22        1.87
  YS02001605           JUNCTION     0.70     1.78     8.68     0  01:45        1.78
  YS02001607           JUNCTION     0.65     1.65     8.50     0  03:01        1.65
  YS02001610           JUNCTION     0.68     1.68     8.48     0  01:22        1.68
  YS02001613           JUNCTION     0.65     1.68     8.52     0  02:40        1.68
  YS02001616           JUNCTION     0.59     1.61     8.52     0  01:59        1.61
  YS02001619           JUNCTION     0.58     1.61     8.54     0  02:07        1.61
  YS02001622           JUNCTION     0.57     1.62     8.52     0  01:59        1.62
  YS02001625           JUNCTION     0.76     1.78     8.38     0  01:29        1.78
  YS02001629           JUNCTION     0.71     1.85     8.40     0  01:37        1.85
  YS02001633           JUNCTION     0.79     2.08     8.53     0  01:59        2.08
  YS02001641           JUNCTION     0.75     1.97     8.41     0  02:26        1.97
  YS02001644           JUNCTION     0.75     1.92     8.35     0  01:37        1.92
  YS02001647           JUNCTION     0.57     1.80     8.41     0  02:43        1.80
  YS02001649           JUNCTION     0.66     2.05     8.44     0  01:59        2.05
  YS02001652           JUNCTION     0.56     2.16     8.76     0  01:59        2.16
  YS02001655           JUNCTION     0.48     2.20     9.05     0  01:59        2.20
  YS02001658           JUNCTION     0.39     2.30     9.44     0  02:29        2.30
  YS02001661           JUNCTION     0.36     2.44     9.85     0  02:31        2.44
  YS02001664           JUNCTION     0.20     2.31    10.23     0  02:29        2.31
  YS02001745           JUNCTION     0.24     2.35     9.87     0  02:34        2.35
  YS02001748           JUNCTION     0.37     2.27     9.35     0  02:33        2.27
  YS02001751           JUNCTION     0.43     2.20     9.08     0  02:33        2.20
  YS02001754           JUNCTION     0.53     2.19     8.80     0  02:38        2.19
  YS02001757           JUNCTION     0.70     2.21     8.47     0  02:22        2.21
  YS02001759           JUNCTION     0.65     2.21     8.57     0  02:24        2.21
  YS02001762           JUNCTION     0.64     2.15     8.55     0  02:24        2.15
  YS02001765           JUNCTION     0.61     2.09     8.54     0  02:29        2.09
  YS02001767           JUNCTION     0.60     2.02     8.51     0  02:33        2.02
  YS02001770           JUNCTION     0.61     1.95     8.44     0  01:59        1.95
  YS02001774           JUNCTION     0.66     2.01     8.43     0  02:47        2.01
  YS02001779           JUNCTION     0.49     1.68     8.37     0  01:50        1.68
  YS02001783           JUNCTION     0.23     1.25     7.39     0  01:26        1.22
  YS02001784           JUNCTION     0.24     1.17     7.24     0  01:26        1.11
  YS02001786           JUNCTION     0.20     1.07     7.10     0  01:26        0.87
  YS02001788           JUNCTION     0.14     0.64     6.62     0  01:26        0.62
  YS02001790           JUNCTION     0.17     0.73     6.37     0  01:29        0.72
  YS02001791           JUNCTION     0.11     0.44     5.91     0  01:30        0.44
  YS02001793           JUNCTION     0.06     0.29     5.12     0  01:26        0.28
  YS02001882           JUNCTION     0.29     1.74     8.46     0  01:25        1.66
  YS02001884           JUNCTION     0.36     1.83     8.44     0  01:25        1.75
  YS02001887           JUNCTION     0.44     1.86     8.40     0  01:25        1.83
  YS02001890           JUNCTION     0.47     1.81     8.32     0  01:25        1.81
  YS02001895           JUNCTION     0.26     1.67     8.42     0  01:25        1.56
  YS02001898           JUNCTION     0.27     1.77     8.51     0  01:25        1.56
  YS02001901           JUNCTION     0.35     1.76     8.37     0  01:25        1.68
  YS02001904           JUNCTION     0.33     1.65     8.28     0  01:25        1.64
  YS02001907           JUNCTION     0.62     1.96     8.25     0  01:25        1.96
  YS02001910           JUNCTION     0.43     2.06     8.56     0  01:27        2.06
  YS02001915           JUNCTION     0.30     2.00     8.72     0  01:25        2.00
  YS02001918           JUNCTION     0.17     1.81     8.88     0  01:26        1.81
  YS02001920           JUNCTION     0.25     2.14     9.15     0  01:26        2.14
  YS02001923           JUNCTION     0.13     2.03     9.29     0  01:26        2.03
  YS02001926           JUNCTION     0.16     1.90     9.35     0  01:26        1.90
  YS02001929           JUNCTION     0.09     1.78     9.47     0  01:26        1.78
  YS02006553           JUNCTION     0.63     1.98     8.26     0  01:27        1.98
  YS02006556           JUNCTION     0.60     1.95     8.26     0  01:26        1.95
  YS02006558           JUNCTION     0.64     2.00     8.26     0  01:27        1.98
  YS02006561           JUNCTION     0.14     0.95     7.61     0  01:26        0.89
  YS02163301           JUNCTION     0.73     1.96     8.47     0  02:25        1.96
  YS02163601           JUNCTION     0.82     2.08     8.48     0  01:59        2.08
  YS02164001           JUNCTION     0.75     1.98     8.43     0  02:30        1.98
  CC-1                 OUTFALL      0.00     0.00     0.00     0  00:00        0.00
  CC-2                 OUTFALL      0.00     0.00     0.00     0  00:00        0.00
  JK-1                 OUTFALL      0.00     0.00     0.00     0  00:00        0.00
  JK-2                 OUTFALL      0.00     0.00     0.00     0  00:00        0.00
  WSC                  OUTFALL      0.18     0.30     0.97     0  02:55        0.30
  CC-storage           STORAGE      1.12     2.30     7.80     0  02:35        2.30
  JK-storage           STORAGE      2.72     4.22     5.02     0  01:49        4.18
  
  
  *******************
  Node Inflow Summary
  *******************
  
  -------------------------------------------------------------------------------------------------
                                  Maximum  Maximum                  Lateral       Total        Flow
                                  Lateral    Total  Time of Max      Inflow      Inflow     Balance
                                   Inflow   Inflow   Occurrence      Volume      Volume       Error
  Node                 Type           LPS      LPS  days hr:min    10^6 ltr    10^6 ltr     Percent
  -------------------------------------------------------------------------------------------------
  WS02003060           JUNCTION     16.53   553.87     0  02:22       0.476        6.44       0.034
  WS02003066           JUNCTION      0.00   537.04     0  02:21           0        5.97       0.020
  WS02003067           JUNCTION      0.00   536.98     0  02:21           0        5.97       0.067
  WS02003069           JUNCTION      0.32   553.90     0  02:22     0.00922        6.45       0.053
  WS02003072           JUNCTION      0.00   553.56     0  02:53           0        6.45       0.095
  WS02003073           JUNCTION      1.82   555.28     0  02:54      0.0524        6.49       0.077
  WS02004401           JUNCTION      0.00  1677.78     0  00:00           0        6.08       0.181
  WS02004402           JUNCTION      0.00  1171.33     0  00:01           0        6.06       0.178
  WS02004403           JUNCTION      0.00   884.75     0  00:01           0        6.05       0.175
  WS02004404           JUNCTION      0.16   832.59     0  00:01     0.00467        6.05       0.140
  WS02004405           JUNCTION      0.04   776.49     0  00:01      0.0011        6.04       0.207
  WS02004406           JUNCTION      0.00   711.76     0  00:02           0        6.03       0.353
  WS02004407           JUNCTION      0.00   538.04     0  02:19           0           6       0.015
  WS02004409           JUNCTION      0.00   537.72     0  02:20           0           6       0.037
  WS02004410           JUNCTION      0.00   537.65     0  02:20           0           6       0.065
  WS02004411           JUNCTION      0.00   537.39     0  02:20           0           6       0.087
  WS02004412           JUNCTION      0.00   537.31     0  02:21           0        5.99       0.115
  WS02004413           JUNCTION      0.00   537.34     0  02:21           0        5.99       0.214
  WS02006109           JUNCTION      1.23  1308.01     0  00:00      0.0354        6.01       0.184
  WS02006110           JUNCTION      0.00   547.39     0  03:36           0        5.98      -0.613
  WS02006111           JUNCTION      0.00  1176.04     0  00:00           0        6.01      -0.647
  WS02006112           JUNCTION      0.00  2307.30     0  00:00           0        6.05      -0.012
  WS02006113           JUNCTION      0.00   566.38     0  03:36           0        5.97      -0.831
  WS02006115           JUNCTION      0.00   899.27     0  00:00           0        6.02      -0.542
  WS02006116           JUNCTION      0.00  1098.16     0  00:01           0        6.05      -0.390
  WS02006228           JUNCTION      0.00   546.60     0  03:36           0        5.95       0.099
  WS02006229           JUNCTION      0.00   547.37     0  03:36           0        5.94       0.109
  WS02006230           JUNCTION     10.28   586.02     0  03:35       0.296        5.92       0.026
  WS02006231           JUNCTION      0.00   585.94     0  03:35           0        5.62      -0.009
  WS02006232           JUNCTION      0.00   584.75     0  03:35           0        5.62       0.073
  WS02006234           JUNCTION      0.00   577.72     0  03:35           0        5.62      -0.034
  WS02006235           JUNCTION      0.00   564.97     0  03:35           0        5.62       0.034
  WS02006238           JUNCTION      0.00   422.00     0  03:47           0        4.29      -0.037
  WS02006239           JUNCTION      0.00   421.83     0  03:47           0        4.29      -0.038
  WS02006240           JUNCTION      0.00   418.86     0  03:47           0        4.29      -0.008
  WS02006242           JUNCTION      0.00   419.33     0  03:07           0        4.29       0.027
  WS02006243           JUNCTION      0.00   418.59     0  03:07           0        4.29      -0.043
  WS02006245           JUNCTION      0.00   417.73     0  03:07           0        4.29       0.081
  WS02006247           JUNCTION      0.00   417.31     0  03:07           0        4.29       0.010
  WS02006248           JUNCTION      0.00   417.56     0  03:07           0        4.29       0.008
  WS02006249           JUNCTION      0.00   437.18     0  01:29           0        4.76       0.038
  WS02006251           JUNCTION      0.08   412.95     0  01:59     0.00222        4.76      -0.007
  WS02006252           JUNCTION      0.00   400.00     0  01:24           0        4.75      -0.017
  WS02006256           JUNCTION      0.00   300.00     0  01:26           0        2.02      -0.006
  WSF200               JUNCTION      0.00   537.11     0  02:22           0        5.97       0.005
  YS02001580           JUNCTION      0.00    76.52     0  01:22           0     0.00442      -0.849
  YS02001583           JUNCTION      0.00   104.60     0  01:21           0      0.0164      -3.475
  YS02001586           JUNCTION   5219.07  5219.07     0  02:37        8.92        8.94       0.011
  YS02001590           JUNCTION      0.00   327.24     0  01:59           0        2.64      -0.036
  YS02001593           JUNCTION      0.00   328.28     0  01:59           0        2.64       0.005
  YS02001596           JUNCTION      0.00   318.53     0  01:59           0        2.64      -0.009
  YS02001600           JUNCTION      0.00   318.73     0  01:59           0        2.64       0.004
  YS02001601           JUNCTION   7924.18  8241.68     0  02:37        11.6        14.3       0.001
  YS02001602           JUNCTION      0.00   511.21     0  01:22           0        3.66       0.009
  YS02001605           JUNCTION      0.00   511.14     0  01:22           0        3.27       0.010
  YS02001607           JUNCTION      0.00   511.07     0  01:22           0        3.27       0.058
  YS02001610           JUNCTION      0.00   954.56     0  02:33           0        5.42       0.037
  YS02001613           JUNCTION      0.00   618.74     0  02:33           0        3.64       0.034
  YS02001616           JUNCTION      0.00   618.19     0  02:25           0        3.64       0.010
  YS02001619           JUNCTION   8981.20  8981.20     0  02:37        14.4        15.9      -0.002
  YS02001622           JUNCTION      0.00  1054.12     0  02:47           0        7.82      -0.003
  YS02001625           JUNCTION      0.00  1505.58     0  02:48           0        9.43       0.120
  YS02001629           JUNCTION      0.00  1139.18     0  02:28           0        5.61      -0.016
  YS02001633           JUNCTION   5927.39  5927.39     0  02:37        8.63        11.4       0.029
  YS02001641           JUNCTION      0.00  1245.92     0  01:27           0        6.74       0.038
  YS02001644           JUNCTION   5221.40  6973.18     0  02:37        7.51        15.9       0.015
  YS02001647           JUNCTION      0.00  1558.85     0  01:28           0        7.41       0.002
  YS02001649           JUNCTION      0.00  3236.41     0  02:40           0        12.5      -0.003
  YS02001652           JUNCTION      0.00  2429.40     0  02:32           0        6.16      -0.028
  YS02001655           JUNCTION      0.15  2731.44     0  02:40     0.00443        6.37       0.026
  YS02001658           JUNCTION      0.00  2783.87     0  02:33           0        6.39      -0.058
  YS02001661           JUNCTION      0.00  2783.96     0  02:39           0        6.39      -0.063
  YS02001664           JUNCTION   5064.97  5064.97     0  02:36        7.05        7.05       0.003
  YS02001745           JUNCTION   3066.39  3066.39     0  02:36        4.12        4.12       0.032
  YS02001748           JUNCTION      0.04  3063.29     0  02:36      0.0013        4.12      -0.076
  YS02001751           JUNCTION      0.01  2356.93     0  02:38    0.000317        4.02       0.019
  YS02001754           JUNCTION      0.26  2356.21     0  02:38     0.00749        4.03      -0.048
  YS02001757           JUNCTION      0.00  3762.00     0  02:38           0          19       0.013
  YS02001759           JUNCTION   4276.64  4276.64     0  02:36        5.74        7.96      -0.009
  YS02001762           JUNCTION      0.00   723.74     0  02:33           0        3.07      -0.004
  YS02001765           JUNCTION      0.00   723.02     0  02:33           0        3.07       0.001
  YS02001767           JUNCTION      0.54   723.24     0  02:39      0.0154        3.07       0.002
  YS02001770           JUNCTION   6156.85  6878.97     0  02:36        8.61        9.51      -0.008
  YS02001774           JUNCTION      0.00   852.31     0  02:45           0        2.55       0.026
  YS02001779           JUNCTION      0.01   851.88     0  02:31    0.000144         2.5      -0.014
  YS02001783           JUNCTION      0.00  1161.06     0  01:27           0        4.41       0.005
  YS02001784           JUNCTION      1.06  1162.61     0  01:27      0.0305        4.44       0.012
  YS02001786           JUNCTION      0.06  1162.15     0  01:27     0.00162        4.44       0.016
  YS02001788           JUNCTION      0.07  1162.66     0  01:27     0.00204        4.44       0.006
  YS02001790           JUNCTION      0.15  1201.29     0  01:26     0.00446        4.44       0.013
  YS02001791           JUNCTION      0.00  1289.94     0  01:29           0        4.44      -0.023
  YS02001793           JUNCTION      0.00  1251.75     0  01:28           0        4.45       0.007
  YS02001882           JUNCTION      0.00   167.62     0  01:25           0      0.0128       3.611
  YS02001884           JUNCTION      0.00   253.10     0  01:25           0      0.0488       5.564
  YS02001887           JUNCTION    746.29   748.01     0  01:27         1.2        1.24       0.368
  YS02001890           JUNCTION      0.00   748.81     0  01:27           0         1.2       0.426
  YS02001895           JUNCTION      0.00   706.60     0  01:25           0        1.13       0.169
  YS02001898           JUNCTION      0.00   649.97     0  01:25           0        1.13      -0.041
  YS02001901           JUNCTION      0.00   646.64     0  01:26           0        1.14       0.279
  YS02001904           JUNCTION      0.00   645.31     0  01:26           0        1.16       0.251
  YS02001907           JUNCTION      0.00  1754.20     0  01:27           0        3.79       0.467
  YS02001910           JUNCTION      0.00  1204.74     0  01:27           0        2.65       0.279
  YS02001915           JUNCTION    792.68  1204.41     0  01:27        1.67         2.7       0.054
  YS02001918           JUNCTION      0.00   984.79     0  01:26           0        1.06       0.009
  YS02001920           JUNCTION      2.87   938.80     0  01:26      0.0827        1.03       0.010
  YS02001923           JUNCTION      0.04  1325.01     0  01:26     0.00109       0.924      -0.258
  YS02001926           JUNCTION      0.05  1509.67     0  01:26      0.0015       0.901      -0.079
  YS02001929           JUNCTION    375.50  1154.21     0  01:26       0.879       0.886      -0.383
  YS02006553           JUNCTION      0.00   791.89     0  01:52           0        2.71       0.439
  YS02006556           JUNCTION      0.00   792.77     0  01:52           0        2.73       0.304
  YS02006558           JUNCTION    942.19  1212.72     0  01:25        1.76        4.46       0.087
  YS02006561           JUNCTION      0.00  1215.98     0  01:25           0        4.41      -0.005
  YS02163301           JUNCTION      0.00  1139.05     0  02:39           0        5.62       0.019
  YS02163601           JUNCTION      0.11  1246.46     0  01:27     0.00317        6.73       0.070
  YS02164001           JUNCTION      0.00  1245.88     0  01:27           0        6.73       0.028
  CC-1                 OUTFALL       0.00   683.00     0  01:29           0        6.89       0.000
  CC-2                 OUTFALL       0.00   683.00     0  01:36           0        6.62       0.000
  JK-1                 OUTFALL       0.00  1000.00     0  01:26           0        2.38       0.000
  JK-2                 OUTFALL       0.00     0.00     0  00:00           0           0       0.000 ltr
  WSC                  OUTFALL       0.00   555.20     0  02:55           0        6.49       0.000
  CC-storage           STORAGE       0.00  2684.24     0  01:44           0        20.2      -0.122
  JK-storage           STORAGE       0.00  1263.37     0  01:30           0         4.6       0.142
  
  
  **********************
  Node Surcharge Summary
  **********************
  
  Surcharging occurs when water rises above the top of the highest conduit.
  ---------------------------------------------------------------------
                                               Max. Height   Min. Depth
                                   Hours       Above Crown    Below Rim
  Node                 Type      Surcharged         Meters       Meters
  ---------------------------------------------------------------------
  WS02006109           JUNCTION        2.84          0.302        1.518
  WS02006110           JUNCTION        1.79          0.205        1.645
  WS02006111           JUNCTION        0.01          0.087        1.783
  WS02006112           JUNCTION        1.76          1.680        0.000
  WS02006113           JUNCTION        0.01          0.600        1.330
  WS02006115           JUNCTION        0.01          0.642        1.608
  WS02006116           JUNCTION        0.01          0.000        2.290
  WS02006228           JUNCTION        2.84          0.286        1.914
  WS02006229           JUNCTION        2.84          0.614        1.836
  WS02006230           JUNCTION        1.79          0.140        1.430
  WS02006231           JUNCTION        1.81          0.281        1.249
  WS02006232           JUNCTION        2.86          0.466        1.014
  WS02006234           JUNCTION        1.92          0.615        0.625
  WS02006235           JUNCTION        2.84          0.786        0.504
  WS02006238           JUNCTION        2.85          0.813        0.617
  WS02006239           JUNCTION        2.83          0.822        0.468
  WS02006240           JUNCTION        2.84          1.014        0.376
  WS02006242           JUNCTION        2.85          0.785        0.035
  WS02006243           JUNCTION        2.84          0.770        0.000
  WS02006245           JUNCTION        2.83          0.593        0.257
  WS02006247           JUNCTION        2.83          0.498        0.262
  WS02006248           JUNCTION        2.82          0.380        0.000
  WS02006249           JUNCTION        2.82          0.390        0.000
  WS02006251           JUNCTION        1.83          0.477        0.703
  WS02006252           JUNCTION        2.89          1.100        0.000
  WS02006256           JUNCTION        4.13          2.050        0.000
  YS02001580           JUNCTION        1.83          0.450        0.000
  YS02001583           JUNCTION        1.84          0.500        0.000
  YS02001586           JUNCTION        1.95          0.510        0.000
  YS02001590           JUNCTION        2.03          0.749        0.001
  YS02001593           JUNCTION        2.03          0.725        0.115
  YS02001596           JUNCTION        2.13          0.969        0.101
  YS02001600           JUNCTION        2.24          1.190        0.000
  YS02001601           JUNCTION        2.47          1.440        0.000
  YS02001602           JUNCTION        2.41          1.270        0.000
  YS02001605           JUNCTION        2.38          1.180        0.000
  YS02001607           JUNCTION        2.04          0.650        0.030
  YS02001610           JUNCTION        2.07          0.680        0.000
  YS02001613           JUNCTION        2.04          0.679        0.021
  YS02001616           JUNCTION        2.00          0.610        0.000
  YS02001619           JUNCTION        1.98          0.610        0.000
  YS02001622           JUNCTION        1.99          0.620        0.000
  YS02001625           JUNCTION        2.16          0.780        0.000
  YS02001629           JUNCTION        1.92          0.470        0.000
  YS02001633           JUNCTION        2.22          1.060        0.000
  YS02001641           JUNCTION        2.19          0.972        0.128
  YS02001644           JUNCTION        2.17          0.920        0.000
  YS02001647           JUNCTION        1.94          0.804        0.096
  YS02001649           JUNCTION        2.08          1.050        0.000
  YS02001652           JUNCTION        1.89          1.130        0.000
  YS02001655           JUNCTION        1.73          1.200        0.000
  YS02001658           JUNCTION        1.37          1.300        0.000
  YS02001661           JUNCTION        0.74          1.374        0.016
  YS02001664           JUNCTION        0.41          1.310        0.000
  YS02001745           JUNCTION        0.44          1.350        0.000
  YS02001748           JUNCTION        1.24          1.190        0.000
  YS02001751           JUNCTION        1.61          1.200        0.000
  YS02001754           JUNCTION        1.84          1.142        0.008
  YS02001757           JUNCTION        2.16          1.210        0.000
  YS02001759           JUNCTION        2.07          1.210        0.000
  YS02001762           JUNCTION        2.04          1.150        0.000
  YS02001765           JUNCTION        2.00          1.092        0.008
  YS02001767           JUNCTION        1.97          1.018        0.012
  YS02001770           JUNCTION        1.95          0.920        0.000
  YS02001774           JUNCTION        2.02          1.010        0.040
  YS02001779           JUNCTION        1.81          0.680        0.000
  YS02001783           JUNCTION        0.59          0.446        1.154
  YS02001784           JUNCTION        0.57          0.375        1.115
  YS02001786           JUNCTION        0.46          0.265        1.165
  YS02001882           JUNCTION        0.54          0.743        0.087
  YS02001884           JUNCTION        0.55          0.765        0.105
  YS02001887           JUNCTION        0.59          0.813        0.137
  YS02001890           JUNCTION        0.60          0.760        0.000
  YS02001895           JUNCTION        0.53          0.674        0.076
  YS02001898           JUNCTION        0.52          0.740        0.000
  YS02001901           JUNCTION        0.57          0.756        0.114
  YS02001904           JUNCTION        0.56          0.652        0.198
  YS02001907           JUNCTION        0.79          0.950        0.000
  YS02001910           JUNCTION        0.63          1.058        0.042
  YS02001915           JUNCTION        0.54          1.000        0.000
  YS02001918           JUNCTION        0.44          0.810        0.000
  YS02001920           JUNCTION        0.46          1.140        0.000
  YS02001923           JUNCTION        0.02          0.820        0.000
  YS02001926           JUNCTION        0.04          0.900        0.000
  YS02001929           JUNCTION        0.01          0.780        0.000
  YS02006553           JUNCTION        0.83          0.975        0.215
  YS02006556           JUNCTION        0.71          0.913        0.437
  YS02006558           JUNCTION        0.70          0.897        0.503
  YS02006561           JUNCTION        0.41          0.148        1.002
  YS02163301           JUNCTION        2.19          0.958        0.072
  YS02163601           JUNCTION        2.26          1.080        0.000
  YS02164001           JUNCTION        2.19          0.977        0.123
  
  
  *********************
  Node Flooding Summary
  *********************
  
  Flooding refers to all water that overflows a node, whether it ponds or not.
  --------------------------------------------------------------------------
                                                             Total   Maximum
                                 Maximum   Time of Max       Flood    Ponded
                        Hours       Rate    Occurrence      Volume     Depth
  Node                 Flooded       LPS   days hr:min    10^6 ltr    Meters
  --------------------------------------------------------------------------
  WS02006112              0.01   1547.89      0  00:00       0.047     0.000
  WS02006243              0.01      0.13      0  01:59       0.000     0.000
  WS02006248              0.01      4.80      0  03:35       0.000     0.000
  WS02006249              1.82    116.15      0  01:29       0.462     0.000
  WS02006252              0.01      0.91      0  01:24       0.000     0.000
  WS02006256              1.87    259.28      0  03:35       0.700     0.000
  YS02001580              0.01     64.92      0  01:22       0.000     0.000
  YS02001583              0.01     32.33      0  01:22       0.000     0.000
  YS02001586              1.66   4901.16      0  02:37       6.280     0.000
  YS02001600              0.01      2.56      0  01:59       0.000     0.000
  YS02001601              1.88   7843.71      0  02:37      10.625     0.000
  YS02001602              1.76     62.54      0  01:59       0.382     0.000
  YS02001605              0.01      0.18      0  03:03       0.000     0.000
  YS02001610              1.69    953.91      0  02:40       3.924     0.000
  YS02001616              0.13      4.46      0  02:54       0.000     0.000
  YS02001619              0.73   7310.99      0  02:37       5.925     0.000
  YS02001622              0.01      0.77      0  01:59       0.000     0.000
  YS02001625              1.68   1505.31      0  02:24       6.603     0.000
  YS02001629              0.75    686.93      0  02:40       1.187     0.000
  YS02001633              0.35   3884.29      0  02:37       1.914     0.000
  YS02001644              1.24   6973.07      0  02:37      10.181     0.000
  YS02001649              0.42   2390.19      0  02:39       2.365     0.000
  YS02001652              0.01      2.09      0  01:59       0.000     0.000
  YS02001655              0.21    303.31      0  02:32       0.204     0.000
  YS02001658              0.17     52.20      0  02:33       0.031     0.000
  YS02001664              0.17   2280.62      0  02:36       0.659     0.000
  YS02001745              0.01      8.77      0  02:36       0.000     0.000
  YS02001748              0.08    709.86      0  02:36       0.107     0.000
  YS02001751              0.01      1.16      0  02:33       0.000     0.000
  YS02001757              0.18    784.21      0  02:38       0.323     0.000
  YS02001759              0.19   2146.63      0  02:36       0.660     0.000
  YS02001762              0.06      3.49      0  02:31       0.000     0.000
  YS02001770              0.61   6026.42      0  02:36       4.781     0.000
  YS02001779              1.11    851.53      0  02:33       2.482     0.000
  YS02001890              0.13    272.33      0  01:25       0.057     0.000
  YS02001898              0.01    416.47      0  01:25       0.001     0.000
  YS02001907              0.38   1534.16      0  01:27       1.056     0.000
  YS02001915              0.01    377.53      0  01:25       0.001     0.000
  YS02001918              0.01    195.23      0  01:27       0.004     0.000
  YS02001920              0.01     47.41      0  01:26       0.000     0.000
  YS02001923              0.01    453.92      0  01:26       0.001     0.000
  YS02001926              0.01    138.12      0  01:27       0.002     0.000
  YS02001929              0.01    935.11      0  01:26       0.007     0.000
  YS02163601              0.01      0.91      0  01:59       0.000     0.000
  CC-storage              0.42    410.77      0  02:35       0.318     0.000
  
  
  **********************
  Storage Volume Summary
  **********************
  
  --------------------------------------------------------------------------------------------------
                         Average     Avg  Evap Exfil       Maximum     Max    Time of Max    Maximum
                          Volume    Pcnt  Pcnt  Pcnt        Volume    Pcnt     Occurrence    Outflow
  Storage Unit           1000 m3    Full  Loss  Loss       1000 m3    Full    days hr:min        LPS
  --------------------------------------------------------------------------------------------------
  CC-storage               3.125      49     0     0         6.410     100       0  02:35    1766.00
  JK-storage               0.137      47     0     0         0.212      73       0  01:49    1300.00
  
  
  ***********************
  Outfall Loading Summary
  ***********************
  
  -----------------------------------------------------------
                         Flow       Avg       Max       Total
                         Freq      Flow      Flow      Volume
  Outfall Node           Pcnt       LPS       LPS    10^6 ltr
  -----------------------------------------------------------
  CC-1                  38.62    683.00    683.00       6.885
  CC-2                  36.79    683.00    683.00       6.618
  JK-1                  11.10   1000.00   1000.00       2.379
  JK-2                   0.00      0.00      0.00       0.000
  WSC                   99.99    261.15    555.20       6.489
  -----------------------------------------------------------
  System                37.30   2627.15    555.20      22.371
  
  
  ********************
  Link Flow Summary
  ********************
  
  -----------------------------------------------------------------------------
                                 Maximum  Time of Max   Maximum    Max/    Max/
                                  |Flow|   Occurrence   |Veloc|    Full    Full
  Link                 Type          LPS  days hr:min     m/sec    Flow   Depth
  -----------------------------------------------------------------------------
  1                    CONDUIT    555.20     0  02:55      2.83    0.19    0.30
  WS02003060WS02003069 CONDUIT    553.58     0  02:22      1.64    0.22    0.34
  WS02003066WSF200     CONDUIT    537.11     0  02:22      2.85    0.09    0.22
  WS02003067WS02003066 CONDUIT    537.04     0  02:21      1.21    0.17    0.42
  WS02003069WS02003072 CONDUIT    553.56     0  02:53      1.37    0.27    0.39
  WS02003072WS02003073 CONDUIT    553.46     0  02:54      1.44    1.20    0.37
  WS02004401WS02004402 CONDUIT   1171.33     0  00:01      2.51    1.41    0.86
  WS02004402WS02004403 CONDUIT    884.75     0  00:01      2.16    1.27    0.88
  WS02004403WS02004404 CONDUIT    832.43     0  00:01      1.96    0.60    0.93
  WS02004404WS02004405 CONDUIT    776.45     0  00:01      2.26    7.61    0.96
  WS02004405WS02004406 CONDUIT    711.76     0  00:02      2.15    1.40    0.96
  WS02004406WS02004407 CONDUIT    538.04     0  02:19      1.04    0.24    0.63
  WS02004407WS02004409 CONDUIT    537.72     0  02:20      1.95    0.19    0.48
  WS02004409WS02004410 CONDUIT    537.65     0  02:20      1.31    0.70    0.67
  WS02004410WS02004411 CONDUIT    537.39     0  02:20      1.19    0.73    0.69
  WS02004411WS02004412 CONDUIT    537.31     0  02:21      1.07    0.76    0.69
  WS02004412WS02004413 CONDUIT    537.34     0  02:21      1.10    0.36    0.78
  WS02004413WS02003067 CONDUIT    536.98     0  02:21      1.11    0.23    0.59
  WS02006109WS02006110 CONDUIT   1306.78     0  00:00      3.14    2.51    1.00
  WS02006110WS02006113 CONDUIT    566.38     0  03:36      1.37    0.52    1.00
  WS02006111WS02006112 CONDUIT   2307.30     0  00:00      9.18    1.10    0.91
  WS02006112WS02006115 CONDUIT    899.27     0  00:00      1.16    0.53    1.00
  WS02006113WS02006111 CONDUIT   1176.04     0  00:00      2.47    1.41    1.00
  WS02006115WS02006116 CONDUIT   1098.16     0  00:01      1.72    1.41    1.00
  WS02006116WS02004401 CONDUIT   1677.78     0  00:00      2.92    2.31    0.84
  WS02006228WS02006109 CONDUIT    546.35     0  03:36      1.40    2.39    1.00
  WS02006229WS02006228 CONDUIT    546.60     0  03:36      1.24    1.81    1.00
  WS02006230WS02006229 CONDUIT    547.37     0  03:36      1.42   12.18    1.00
  WS02006231WS02006230 CONDUIT    575.75     0  03:35      1.58    8.73    1.00
  WS02006232WS02006231 CONDUIT    585.94     0  03:35      1.53    1.23    1.00
  WS02006234WS02006232 CONDUIT    584.75     0  03:35      1.52    1.18    1.00
  WS02006235WS02006234 CONDUIT    577.72     0  03:35      1.50    6.10    1.00
  WS02006238WS02006235 CONDUIT    423.67     0  03:47      1.25    0.95    1.00
  WS02006239WS02006238 CONDUIT    422.00     0  03:47      1.10    1.35    1.00
  WS02006240WS02006239 CONDUIT    421.83     0  03:47      1.10    1.33    1.00
  WS02006242WS02006240 CONDUIT    418.86     0  03:47      1.09    1.66    1.00
  WS02006243WS02006242 CONDUIT    419.33     0  03:07      1.16    0.90    1.00
  WS02006245WS02006243 CONDUIT    418.59     0  03:07      1.27    1.24    1.00
  WS02006247WS02006245 CONDUIT    417.73     0  03:07      1.24    3.31    1.00
  WS02006248WS02006247 CONDUIT    417.31     0  03:07      1.28    0.91    1.00
  WS02006249WS02006248 CONDUIT    417.56     0  03:07      1.31    2.29    1.00
  WS02006251WS02006249 CONDUIT    437.18     0  01:29      1.69    1.26    1.00
  WS02006252WS02006251 CONDUIT    412.88     0  01:59      5.51    1.52    1.00
  WS02006256WS02006235 CONDUIT    247.29     0  01:26      3.50    2.62    1.00
  WSF200WS02003060     CONDUIT    537.34     0  02:22      2.06    0.12    0.28
  YS02001580YS02001583 CONDUIT     76.52     0  01:22      0.52    0.30    1.00
  YS02001583YS02001586 CONDUIT    104.60     0  01:21      0.47    0.16    1.00
  YS02001586YS02001590 CONDUIT    327.24     0  01:59      1.27    0.57    1.00
  YS02001590YS02001593 CONDUIT    328.28     0  01:59      1.16    2.06    1.00
  YS02001593YS02001596 CONDUIT    318.53     0  01:59      1.78    0.50    1.00
  YS02001596YS02001600 CONDUIT    318.73     0  01:59      1.33    0.62    1.00
  YS02001600YS02001601 CONDUIT    318.99     0  01:59      1.13    0.55    1.00
  YS02001601YS02001602 CONDUIT    511.21     0  01:22      1.81    1.85    1.00
  YS02001602YS02001605 CONDUIT    511.14     0  01:22      1.81   10.82    1.00
  YS02001605YS02001607 CONDUIT    511.07     0  01:22      1.81    2.80    1.00
  YS02001607YS02001610 CONDUIT    512.79     0  01:21      0.68    0.49    1.00
  YS02001610YS02001613 CONDUIT    618.03     0  02:40      0.79    0.71    1.00
  YS02001613YS02001616 CONDUIT    618.74     0  02:33      0.79    0.53    1.00
  YS02001616YS02001619 CONDUIT    618.19     0  02:25      0.79    1.07    1.00
  YS02001619YS02001622 CONDUIT   1054.12     0  02:47      1.53    1.55    1.00
  YS02001622YS02001625 CONDUIT   1053.79     0  02:48      1.34    0.56    1.00
  YS02001625YS02001629 CONDUIT    894.15     0  01:27      1.15    0.43    1.00
  YS02001629YS02163301 CONDUIT   1139.18     0  02:28      1.45    1.40    1.00
  YS02001633YS02163601 CONDUIT   1246.35     0  01:27      1.59    1.31    1.00
  YS02001641YS02001644 CONDUIT   1244.91     0  01:27      1.59    4.02    1.00
  YS02001644YS02001647 CONDUIT   1558.85     0  01:28      2.06    0.92    1.00
  YS02001647YS02001649 CONDUIT   1558.83     0  01:28      2.27    0.82    1.00
  YS02001649YS02001757 CONDUIT   1765.81     0  01:30      2.41    1.07    1.00
  YS02001652YS02001649 CONDUIT   2429.44     0  02:31      3.09    1.20    1.00
  YS02001655YS02001652 CONDUIT   2429.40     0  02:32      3.09    1.18    1.00
  YS02001658YS02001655 CONDUIT   2731.29     0  02:40      3.48    1.16    1.00
  YS02001661YS02001658 CONDUIT   2783.87     0  02:33      3.54    1.09    1.00
  YS02001664YS02001661 CONDUIT   2783.96     0  02:39      3.54    0.87    1.00
  YS02001745YS02001748 CONDUIT   3063.24     0  02:36      3.90    1.18    1.00
  YS02001748YS02001751 CONDUIT   2356.92     0  02:38      3.00    1.19    1.00
  YS02001751YS02001754 CONDUIT   2355.95     0  02:38      3.00    1.14    1.00
  YS02001754YS02001757 CONDUIT   2354.71     0  02:38      3.00    0.95    1.00
  YS02001757CaochengTiaoxuchi CONDUIT   2684.24     0  01:44      3.42    1.16    1.00
  YS02001759YS02001757 CONDUIT   1428.80     0  02:40      1.82    1.02    1.00
  YS02001762YS02001759 CONDUIT    723.74     0  02:33      0.92    0.83    1.00
  YS02001765YS02001762 CONDUIT    723.02     0  02:33      0.92    0.68    1.00
  YS02001767YS02001765 CONDUIT    722.70     0  02:39      0.92    0.91    1.00
  YS02001770YS02001767 CONDUIT    723.17     0  02:39      0.92    2.86    1.00
  YS02001774YS02001770 CONDUIT    852.31     0  02:45      1.09    0.54    1.00
  YS02001779YS02001774 CONDUIT    851.87     0  02:31      1.08    0.43    1.00
  YS02001783YS02001784 CONDUIT   1161.55     0  01:27      2.31    1.60    1.00
  YS02001784YS02001785 CONDUIT   1162.09     0  01:27      2.31    2.70    1.00
  YS02001786YS02001788 CONDUIT   1162.59     0  01:27      2.49    2.24    0.90
  YS02001788YS02001790 CONDUIT   1201.13     0  01:26      2.77    0.89    0.84
  YS02001790YS02001791 CONDUIT   1289.94     0  01:29      3.43    1.40    0.70
  YS02001791YS02001793 CONDUIT   1251.75     0  01:28      6.77    0.54    0.44
  YS02001793JiankangQianchi CONDUIT   1263.37     0  01:30      2.54    0.10    0.64
  YS02001882YS02001884 CONDUIT    167.62     0  01:25      0.22    0.19    1.00
  YS02001884YS02001887 CONDUIT    253.10     0  01:25      0.32    0.34    1.00
  YS02001887YS02001890 CONDUIT    748.81     0  01:27      0.95    1.28    1.00
  YS02001890YS02001895 CONDUIT    706.60     0  01:25      0.90    0.33    1.00
  YS02001895YS02001898 CONDUIT    649.97     0  01:25      0.83    1.13    1.00
  YS02001898YS02001901 CONDUIT    646.64     0  01:26      0.82    0.42    1.00
  YS02001901YS02001904 CONDUIT    645.31     0  01:26      0.82    1.00    1.00
  YS02001904YS02001907 CONDUIT    645.98     0  01:26      0.82    0.23    1.00
  YS02001907YS02006553 CONDUIT    791.89     0  01:52      0.88    0.93    1.00
  YS02001910YS02001907 CONDUIT   1204.68     0  01:27      1.53    0.68    1.00
  YS02001915YS02001910 CONDUIT   1204.74     0  01:27      1.53    0.60    1.00
  YS02001918YS02001915 CONDUIT    984.79     0  01:26      1.26    0.54    1.00
  YS02001920YS02001918 CONDUIT    935.93     0  01:26      1.19    0.91    1.00
  YS02001923YS02001920 CONDUIT    974.63     0  01:26      1.32    0.44    1.00
  YS02001926YS02001923 CONDUIT   1217.29     0  01:26      1.73    1.74    1.00
  YS02001929YS02001926 CONDUIT    849.72     0  01:26      1.30    0.40    1.00
  YS02006553YS02006556 CONDUIT    792.77     0  01:52      1.01    0.68    1.00
  YS02006556YS02006558 CONDUIT    796.26     0  01:52      1.01    0.63    1.00
  YS02006558YS02006561 CONDUIT   1215.98     0  01:25      4.30    2.69    1.00
  YS02006561YS02001783 CONDUIT   1161.06     0  01:27      2.31    0.60    1.00
  YS02163301YS02001633 CONDUIT   1139.05     0  02:39      1.45    1.07    1.00
  YS02163601YS02164001 CONDUIT   1245.88     0  01:27      1.59    1.10    1.00
  YS02164001YS02001641 CONDUIT   1245.92     0  01:27      1.59    1.70    1.00
  CC-R1                PUMP       683.00     0  01:29              1.00
  CC-R2                PUMP       683.00     0  01:36              1.00
  CC-S1                PUMP       200.00     0  00:34              1.00
  CC-S2                PUMP       200.00     0  01:24              1.00
  JK-R1                PUMP      1000.00     0  01:26              1.00
  JK-R2                PUMP         0.00     0  00:00              0.00
  JK-S                 PUMP       300.00     0  01:26              1.00
  
  
  ***************************
  Flow Classification Summary
  ***************************
  
  -------------------------------------------------------------------------------------
                      Adjusted    ---------- Fraction of Time in Flow Class ---------- 
                       /Actual         Up    Down  Sub   Sup   Up    Down  Norm  Inlet 
  Conduit               Length    Dry  Dry   Dry   Crit  Crit  Crit  Crit  Ltd   Ctrl  
  -------------------------------------------------------------------------------------
  1                       1.00   0.00  0.00  0.00  0.00  1.00  0.00  0.00  0.54  0.00
  WS02003060WS02003069    1.00   0.00  0.00  0.00  0.95  0.05  0.00  0.00  0.59  0.00
  WS02003066WSF200        1.00   0.01  0.00  0.00  0.00  0.99  0.00  0.00  0.74  0.00
  WS02003067WS02003066    1.00   0.01  0.00  0.00  0.99  0.00  0.00  0.00  0.00  0.00
  WS02003069WS02003072    1.00   0.00  0.00  0.00  1.00  0.00  0.00  0.00  0.63  0.00
  WS02003072WS02003073    1.00   0.00  0.00  0.00  0.00  0.00  0.00  1.00  0.00  0.00
  WS02004401WS02004402    1.00   0.00  0.00  0.00  1.00  0.00  0.00  0.00  0.00  0.00
  WS02004402WS02004403    1.00   0.00  0.00  0.00  1.00  0.00  0.00  0.00  0.00  0.00
  WS02004403WS02004404    1.00   0.00  0.00  0.00  1.00  0.00  0.00  0.00  0.00  0.00
  WS02004404WS02004405    1.00   0.00  0.00  0.00  1.00  0.00  0.00  0.00  0.00  0.00
  WS02004405WS02004406    1.00   0.00  0.00  0.00  1.00  0.00  0.00  0.00  0.00  0.00
  WS02004406WS02004407    1.00   0.00  0.00  0.00  1.00  0.00  0.00  0.00  0.00  0.00
  WS02004407WS02004409    1.00   0.00  0.00  0.00  1.00  0.00  0.00  0.00  0.99  0.00
  WS02004409WS02004410    1.00   0.00  0.00  0.00  1.00  0.00  0.00  0.00  0.00  0.00
  WS02004410WS02004411    1.00   0.00  0.00  0.00  1.00  0.00  0.00  0.00  0.00  0.00
  WS02004411WS02004412    1.00   0.00  0.00  0.00  1.00  0.00  0.00  0.00  0.00  0.00
  WS02004412WS02004413    1.00   0.00  0.00  0.00  0.99  0.00  0.00  0.00  0.00  0.00
  WS02004413WS02003067    1.00   0.00  0.00  0.00  0.00  0.00  0.99  0.00  0.00  0.00
  WS02006109WS02006110    1.00   0.00  0.00  0.00  1.00  0.00  0.00  0.00  0.00  0.00
  WS02006110WS02006113    1.00   0.00  0.00  0.00  1.00  0.00  0.00  0.00  0.00  0.00
  WS02006111WS02006112    1.00   0.00  0.00  0.00  1.00  0.00  0.00  0.00  1.00  0.00
  WS02006112WS02006115    1.00   0.00  0.00  0.00  1.00  0.00  0.00  0.00  0.00  0.00
  WS02006113WS02006111    1.00   0.00  0.00  0.00  0.00  1.00  0.00  0.00  0.14  0.00
  WS02006115WS02006116    1.00   0.00  0.00  0.00  1.00  0.00  0.00  0.00  0.00  0.00
  WS02006116WS02004401    1.00   0.00  0.00  0.00  1.00  0.00  0.00  0.00  0.00  0.00
  WS02006228WS02006109    1.00   0.00  0.00  0.00  1.00  0.00  0.00  0.00  0.00  0.00
  WS02006229WS02006228    1.00   0.00  0.00  0.00  1.00  0.00  0.00  0.00  0.00  0.00
  WS02006230WS02006229    1.00   0.00  0.00  0.00  1.00  0.00  0.00  0.00  0.01  0.00
  WS02006231WS02006230    1.00   0.00  0.00  0.00  0.40  0.00  0.59  0.00  0.00  0.00
  WS02006232WS02006231    1.00   0.00  0.00  0.00  0.98  0.00  0.01  0.00  0.00  0.00
  WS02006234WS02006232    1.00   0.00  0.00  0.00  1.00  0.00  0.00  0.00  0.41  0.00
  WS02006235WS02006234    1.00   0.06  0.00  0.00  0.77  0.00  0.16  0.00  0.00  0.00
  WS02006238WS02006235    1.00   0.01  0.00  0.00  0.99  0.01  0.00  0.00  0.00  0.00
  WS02006239WS02006238    1.00   0.05  0.00  0.00  0.93  0.00  0.00  0.01  0.40  0.00
  WS02006240WS02006239    1.00   0.05  0.00  0.00  0.76  0.00  0.00  0.19  0.01  0.00
  WS02006242WS02006240    1.00   0.02  0.03  0.00  0.93  0.00  0.02  0.00  0.00  0.00
  WS02006243WS02006242    1.00   0.02  0.00  0.00  0.94  0.00  0.00  0.04  0.44  0.00
  WS02006245WS02006243    1.00   0.01  0.00  0.00  0.79  0.00  0.00  0.20  0.00  0.00
  WS02006247WS02006245    1.00   0.01  0.00  0.00  0.95  0.00  0.00  0.04  0.00  0.00
  WS02006248WS02006247    1.00   0.01  0.00  0.00  0.96  0.00  0.00  0.03  0.06  0.00
  WS02006249WS02006248    1.00   0.00  0.01  0.00  0.77  0.00  0.22  0.00  0.00  0.00
  WS02006251WS02006249    1.00   0.00  0.00  0.00  1.00  0.00  0.00  0.00  0.51  0.00
  WS02006252WS02006251    1.00   0.03  0.21  0.00  0.26  0.00  0.50  0.00  0.46  0.00
  WS02006256WS02006235    1.00   0.01  0.00  0.00  0.99  0.01  0.00  0.00  0.00  0.00
  WSF200WS02003060        1.00   0.00  0.01  0.00  0.30  0.69  0.00  0.00  0.52  0.00
  YS02001580YS02001583    1.00   0.35  0.23  0.00  0.41  0.00  0.00  0.00  0.58  0.00
  YS02001583YS02001586    1.00   0.32  0.22  0.00  0.46  0.00  0.01  0.00  0.58  0.00
  YS02001586YS02001590    1.00   0.21  0.00  0.00  0.61  0.03  0.00  0.15  0.31  0.00
  YS02001590YS02001593    1.00   0.21  0.01  0.00  0.35  0.00  0.42  0.00  0.00  0.00
  YS02001593YS02001596    1.00   0.23  0.00  0.00  0.38  0.01  0.00  0.39  0.01  0.00
  YS02001596YS02001600    1.00   0.23  0.00  0.00  0.44  0.01  0.00  0.32  0.02  0.00
  YS02001600YS02001601    1.00   0.22  0.02  0.00  0.77  0.00  0.00  0.00  0.51  0.00
  YS02001601YS02001602    1.00   0.21  0.01  0.00  0.78  0.00  0.00  0.00  0.00  0.00
  YS02001602YS02001605    1.00   0.22  0.00  0.00  0.77  0.00  0.00  0.00  0.00  0.00
  YS02001605YS02001607    1.00   0.23  0.00  0.00  0.77  0.00  0.00  0.00  0.00  0.00
  YS02001607YS02001610    1.00   0.23  0.01  0.00  0.77  0.00  0.00  0.00  0.00  0.00
  YS02001610YS02001613    1.00   0.22  0.00  0.00  0.78  0.00  0.00  0.00  0.00  0.00
  YS02001613YS02001616    1.00   0.21  0.00  0.00  0.79  0.00  0.00  0.00  0.00  0.00
  YS02001616YS02001619    1.00   0.21  0.00  0.00  0.79  0.00  0.00  0.00  0.00  0.00
  YS02001619YS02001622    1.00   0.21  0.00  0.00  0.77  0.02  0.00  0.00  0.23  0.00
  YS02001622YS02001625    1.00   0.21  0.00  0.00  0.76  0.02  0.00  0.00  0.01  0.00
  YS02001625YS02001629    1.00   0.22  0.07  0.00  0.40  0.00  0.31  0.00  0.00  0.00
  YS02001629YS02163301    1.00   0.24  0.01  0.00  0.75  0.00  0.00  0.00  0.00  0.00
  YS02001633YS02163601    1.00   0.00  0.00  0.00  1.00  0.00  0.00  0.00  0.13  0.00
  YS02001641YS02001644    1.00   0.00  0.00  0.00  1.00  0.00  0.00  0.00  0.00  0.00
  YS02001644YS02001647    1.00   0.00  0.26  0.00  0.74  0.00  0.00  0.00  0.00  0.00
  YS02001647YS02001649    1.00   0.00  0.26  0.00  0.60  0.14  0.00  0.00  0.52  0.00
  YS02001649YS02001757    1.00   0.00  0.00  0.00  0.86  0.14  0.00  0.00  0.33  0.00
  YS02001652YS02001649    1.00   0.00  0.00  0.00  0.95  0.05  0.00  0.00  0.63  0.00
  YS02001655YS02001652    1.00   0.00  0.00  0.00  0.42  0.01  0.00  0.57  0.03  0.00
  YS02001658YS02001655    1.00   0.00  0.23  0.00  0.60  0.16  0.00  0.00  0.55  0.00
  YS02001661YS02001658    1.00   0.23  0.00  0.00  0.46  0.31  0.00  0.00  0.57  0.00
  YS02001664YS02001661    1.00   0.21  0.00  0.00  0.62  0.16  0.00  0.00  0.72  0.00
  YS02001745YS02001748    1.00   0.00  0.00  0.00  0.31  0.00  0.00  0.69  0.04  0.00
  YS02001748YS02001751    1.00   0.00  0.00  0.00  0.83  0.17  0.00  0.00  0.66  0.00
  YS02001751YS02001754    1.00   0.00  0.00  0.00  0.40  0.01  0.00  0.58  0.03  0.00
  YS02001754YS02001757    1.00   0.00  0.00  0.00  0.98  0.02  0.00  0.00  0.66  0.00
  YS02001757CaochengTiaoxuchi    1.00   0.00  0.00  0.00  0.98  0.02  0.00  0.00  0.58  0.00
  YS02001759YS02001757    1.00   0.00  0.00  0.00  0.96  0.04  0.00  0.00  0.60  0.00
  YS02001762YS02001759    1.00   0.00  0.00  0.00  1.00  0.00  0.00  0.00  0.01  0.00
  YS02001765YS02001762    1.00   0.00  0.00  0.00  1.00  0.00  0.00  0.00  0.61  0.00
  YS02001767YS02001765    1.00   0.00  0.00  0.00  1.00  0.00  0.00  0.00  0.00  0.00
  YS02001770YS02001767    1.00   0.00  0.00  0.00  1.00  0.00  0.00  0.00  0.00  0.00
  YS02001774YS02001770    1.00   0.00  0.22  0.00  0.72  0.00  0.05  0.00  0.00  0.00
  YS02001779YS02001774    1.00   0.00  0.00  0.00  1.00  0.00  0.00  0.00  0.64  0.00
  YS02001783YS02001784    1.00   0.00  0.35  0.00  0.65  0.00  0.00  0.00  0.55  0.00
  YS02001784YS02001785    1.00   0.00  0.00  0.00  1.00  0.00  0.00  0.00  0.15  0.00
  YS02001786YS02001788    1.00   0.00  0.00  0.00  0.75  0.25  0.00  0.00  0.00  0.00
  YS02001788YS02001790    1.00   0.00  0.00  0.00  0.41  0.59  0.00  0.00  0.79  0.00
  YS02001790YS02001791    1.00   0.00  0.00  0.00  0.01  0.99  0.00  0.00  0.18  0.00
  YS02001791YS02001793    1.00   0.00  0.00  0.00  0.00  1.00  0.00  0.00  0.01  0.00
  YS02001793JiankangQianchi    1.00   0.00  0.00  0.00  0.95  0.05  0.00  0.00  0.97  0.00
  YS02001882YS02001884    1.00   0.29  0.02  0.00  0.69  0.00  0.00  0.00  0.00  0.00
  YS02001884YS02001887    1.00   0.03  0.15  0.00  0.83  0.00  0.00  0.00  0.00  0.00
  YS02001887YS02001890    1.00   0.00  0.00  0.00  0.99  0.00  0.01  0.00  0.00  0.00
  YS02001890YS02001895    1.00   0.00  0.31  0.00  0.69  0.00  0.00  0.00  0.00  0.00
  YS02001895YS02001898    1.00   0.31  0.01  0.00  0.65  0.00  0.03  0.00  0.00  0.00
  YS02001898YS02001901    1.00   0.32  0.00  0.00  0.68  0.00  0.00  0.00  0.00  0.00
  YS02001901YS02001904    1.00   0.32  0.00  0.00  0.68  0.00  0.00  0.00  0.00  0.00
  YS02001904YS02001907    1.00   0.00  0.32  0.00  0.68  0.00  0.00  0.00  0.00  0.00
  YS02001907YS02006553    1.00   0.00  0.01  0.00  0.99  0.00  0.00  0.00  0.00  0.00
  YS02001910YS02001907    1.00   0.00  0.00  0.00  0.99  0.00  0.00  0.01  0.12  0.00
  YS02001915YS02001910    1.00   0.00  0.00  0.00  0.92  0.08  0.00  0.00  0.13  0.00
  YS02001918YS02001915    1.00   0.00  0.00  0.00  0.99  0.01  0.00  0.00  0.74  0.00
  YS02001920YS02001918    1.00   0.00  0.00  0.00  1.00  0.00  0.00  0.00  0.01  0.00
  YS02001923YS02001920    1.00   0.00  0.00  0.00  1.00  0.00  0.00  0.00  0.92  0.00
  YS02001926YS02001923    1.00   0.00  0.04  0.00  0.09  0.00  0.88  0.00  0.00  0.00
  YS02001929YS02001926    1.00   0.00  0.21  0.00  0.79  0.00  0.00  0.00  0.81  0.00
  YS02006553YS02006556    1.00   0.01  0.00  0.00  0.99  0.00  0.00  0.00  0.03  0.00
  YS02006556YS02006558    1.00   0.00  0.00  0.00  1.00  0.00  0.00  0.00  0.00  0.00
  YS02006558YS02006561    1.00   0.34  0.00  0.00  0.08  0.57  0.00  0.00  0.20  0.00
  YS02006561YS02001783    1.00   0.34  0.00  0.00  0.12  0.53  0.00  0.00  0.69  0.00
  YS02163301YS02001633    1.00   0.00  0.24  0.00  0.76  0.00  0.00  0.00  0.00  0.00
  YS02163601YS02164001    1.00   0.00  0.06  0.00  0.94  0.00  0.00  0.00  0.00  0.00
  YS02164001YS02001641    1.00   0.00  0.06  0.00  0.94  0.00  0.00  0.00  0.05  0.00
  
  
  *************************
  Conduit Surcharge Summary
  *************************
  
  ----------------------------------------------------------------------------
                                                           Hours        Hours 
                         --------- Hours Full --------   Above Full   Capacity
  Conduit                Both Ends  Upstream  Dnstream   Normal Flow   Limited
  ----------------------------------------------------------------------------
  WS02003072WS02003073        0.01      0.01      0.01      1.88         0.01
  WS02004401WS02004402        0.01      0.01      0.01      0.01         0.01
  WS02004402WS02004403        0.01      0.01      0.01      0.01         0.01
  WS02004404WS02004405        0.01      0.01      0.01      3.79         0.01
  WS02004405WS02004406        0.01      0.01      0.01      1.71         0.01
  WS02006109WS02006110        1.78      1.79      2.87      1.81         0.01
  WS02006110WS02006113        0.01      0.01      2.86      0.01         0.01
  WS02006111WS02006112        0.01      0.01      2.95      0.01         0.01
  WS02006112WS02006115        0.01      0.01      1.75      0.01         0.01
  WS02006113WS02006111        0.01      0.01      0.01      0.01         0.01
  WS02006115WS02006116        0.01      0.01      0.01      0.01         0.01
  WS02006116WS02004401        0.01      0.01      0.01      0.01         0.01
  WS02006228WS02006109        2.84      2.86      2.84      2.96         2.84
  WS02006229WS02006228        2.84      2.84      2.84      2.91         2.84
  WS02006230WS02006229        2.88      2.89      2.88      3.89         2.88
  WS02006231WS02006230        1.78      1.78      1.82      3.78         0.01
  WS02006232WS02006231        1.81      1.81      2.86      1.84         0.01
  WS02006234WS02006232        2.83      2.83      2.86      1.82         1.81
  WS02006235WS02006234        1.92      1.92      2.84      3.74         0.01
  WS02006238WS02006235        2.84      2.84      2.86      0.01         0.01
  WS02006239WS02006238        2.85      2.86      2.85      2.84         2.56
  WS02006240WS02006239        2.83      2.84      2.83      2.84         2.41
  WS02006242WS02006240        2.84      2.84      2.86      2.88         0.01
  WS02006243WS02006242        2.84      2.84      2.85      0.01         0.01
  WS02006245WS02006243        2.83      2.83      2.84      1.05         1.41
  WS02006247WS02006245        2.83      2.83      2.83      3.70         2.82
  WS02006248WS02006247        2.82      2.82      2.83      0.01         0.01
  WS02006249WS02006248        2.82      2.82      2.82      3.69         0.01
  WS02006251WS02006249        2.82      2.82      2.82      2.87         2.80
  WS02006252WS02006251        2.88      2.88      2.89      2.88         0.01
  WS02006256WS02006235        3.76      3.76      4.12      1.87         0.01
  YS02001580YS02001583        1.83      1.83      1.87      0.01         0.01
  YS02001583YS02001586        1.84      1.84      1.95      0.01         0.01
  YS02001586YS02001590        1.96      1.96      2.03      0.01         0.01
  YS02001590YS02001593        2.03      2.03      2.05      2.06         0.01
  YS02001593YS02001596        2.04      2.04      2.13      0.01         0.01
  YS02001596YS02001600        2.17      2.17      2.24      0.01         0.01
  YS02001600YS02001601        2.29      2.29      2.47      0.01         0.01
  YS02001601YS02001602        2.41      2.41      2.49      2.21         0.01
  YS02001602YS02001605        2.38      2.38      2.41      3.05         0.01
  YS02001605YS02001607        2.35      2.38      2.37      2.36         2.27
  YS02001607YS02001610        2.04      2.04      2.07      0.01         0.01
  YS02001610YS02001613        2.04      2.04      2.07      0.01         0.01
  YS02001613YS02001616        2.00      2.00      2.04      0.01         0.01
  YS02001616YS02001619        1.98      1.98      2.00      0.74         0.65
  YS02001619YS02001622        1.98      1.98      1.99      1.94         1.84
  YS02001622YS02001625        1.99      1.99      2.16      0.01         0.01
  YS02001625YS02001629        1.92      1.92      2.16      0.01         0.01
  YS02001629YS02163301        2.18      2.18      2.19      0.59         0.13
  YS02001633YS02163601        2.22      2.22      2.26      0.23         0.25
  YS02001641YS02001644        2.17      2.19      2.17      2.52         2.08
  YS02001644YS02001647        1.94      1.94      2.17      0.01         0.01
  YS02001647YS02001649        1.94      1.94      2.08      0.01         0.01
  YS02001649YS02001757        2.08      2.08      2.16      0.18         0.11
  YS02001652YS02001649        1.92      1.92      2.08      0.27         0.26
  YS02001655YS02001652        1.73      1.73      1.89      0.26         0.26
  YS02001658YS02001655        1.36      1.36      1.73      0.21         0.21
  YS02001661YS02001658        0.74      0.74      1.36      0.19         0.19
  YS02001664YS02001661        0.41      0.41      0.90      0.01         0.01
  YS02001745YS02001748        0.44      0.44      1.24      0.05         0.05
  YS02001748YS02001751        1.32      1.32      1.61      0.12         0.12
  YS02001751YS02001754        1.61      1.61      1.84      0.10         0.10
  YS02001754YS02001757        1.88      1.88      2.16      0.01         0.01
  YS02001757CaochengTiaoxuchi        2.16      2.16      2.64      0.92         0.91
  YS02001759YS02001757        2.07      2.07      2.16      0.06         0.01
  YS02001762YS02001759        2.04      2.04      2.07      0.01         0.01
  YS02001765YS02001762        2.00      2.00      2.04      0.01         0.01
  YS02001767YS02001765        1.97      1.97      2.00      0.01         0.01
  YS02001770YS02001767        1.97      1.97      1.97      1.59         0.99
  YS02001774YS02001770        1.95      1.95      2.02      0.01         0.01
  YS02001779YS02001774        1.81      1.81      2.02      0.01         0.01
  YS02001783YS02001784        0.57      0.59      0.57      0.74         0.57
  YS02001784YS02001785        0.46      0.57      0.46      1.03         0.46
  YS02001786YS02001788        0.01      0.46      0.01      0.86         0.01
  YS02001790YS02001791        0.01      0.01      0.01      0.55         0.01
  YS02001793JiankangQianchi        0.01      0.01      7.98      0.01         0.01
  YS02001882YS02001884        0.54      0.54      0.55      0.01         0.01
  YS02001884YS02001887        0.57      0.57      0.59      0.01         0.01
  YS02001887YS02001890        0.60      0.60      0.61      0.10         0.01
  YS02001890YS02001895        0.53      0.53      0.63      0.01         0.01
  YS02001895YS02001898        0.52      0.52      0.53      0.02         0.01
  YS02001898YS02001901        0.53      0.53      0.57      0.01         0.01
  YS02001901YS02001904        0.56      0.56      0.57      0.01         0.01
  YS02001904YS02001907        0.56      0.56      0.83      0.01         0.01
  YS02001907YS02006553        1.05      1.05      1.13      0.01         0.01
  YS02001910YS02001907        0.63      0.63      0.79      0.01         0.01
  YS02001915YS02001910        0.54      0.54      0.63      0.01         0.01
  YS02001918YS02001915        0.44      0.44      0.54      0.01         0.01
  YS02001920YS02001918        0.44      0.44      0.46      0.01         0.01
  YS02001923YS02001920        0.40      0.40      0.46      0.01         0.01
  YS02001926YS02001923        0.02      0.02      0.04      0.01         0.01
  YS02001929YS02001926        0.01      0.01      0.04      0.01         0.01
  YS02006553YS02006556        0.71      0.71      0.83      0.01         0.01
  YS02006556YS02006558        0.76      0.76      0.85      0.01         0.01
  YS02006558YS02006561        0.48      0.70      0.48      0.96         0.48
  YS02006561YS02001783        0.41      0.41      0.59      0.01         0.01
  YS02163301YS02001633        2.19      2.19      2.24      0.36         0.01
  YS02163601YS02164001        2.19      2.19      2.26      0.15         0.01
  YS02164001YS02001641        2.18      2.19      2.19      1.04         0.99
  
  
  ***************
  Pumping Summary
  ***************
  
  ---------------------------------------------------------------------------------------------------------
                                                  Min       Avg       Max     Total     Power    % Time Off
                        Percent   Number of      Flow      Flow      Flow    Volume     Usage    Pump Curve
  Pump                 Utilized   Start-Ups       LPS       LPS       LPS  10^6 ltr     Kw-hr    Low   High
  ---------------------------------------------------------------------------------------------------------
  CC-R1                   35.00           1      0.00    683.00    683.00     6.885    136.73    0.0   52.8
  CC-R2                   33.64           1      0.00    683.00    683.00     6.618    131.78    0.0   55.0
  CC-S1                   46.49           1      0.00    200.00    200.00     2.678     12.92    0.0   33.2
  CC-S2                   36.06           1      0.00    200.00    200.00     2.077      9.08    0.0   42.8
  JK-R1                    8.26           4      0.00   1000.00   1000.00     2.379     23.16    0.0    0.0
  JK-R2                    0.00           0      0.00      0.00      0.00     0.000      0.00    0.0    0.0
  JK-S                    23.41           2      0.00    300.00    300.00     2.023     33.53    0.0    0.0
  

  Analysis begun on:  Mon Aug  7 10:44:14 2023
  Analysis ended on:  Mon Aug  7 10:44:27 2023
  Total elapsed time: 00:00:13